16387-1
                    3D
 Schrodinger Suite 2024-3.
 42 44  0  0  1  0            999 V2000
   76.7152   51.2564   42.5117 C   0  0  0  0  0  0
   75.6469   51.8672   41.7091 C   0  0  0  0  0  0
   74.7156   52.5958   42.3599 C   0  0  0  0  0  0
   74.7624   52.7581   43.7471 N   0  0  0  0  0  0
   75.7023   52.2182   44.5484 C   0  0  0  0  0  0
   75.6665   52.3767   45.7684 O   0  0  0  0  0  0
   76.7303   51.4438   43.8559 C   0  0  0  0  0  0
   77.7066   50.8711   44.7216 C   0  0  0  0  0  0
   78.4723   50.4247   45.4646 N   0  0  0  0  0  0
   73.5301   53.2752   41.6754 C   0  0  2  0  0  0
   73.5536   53.2080   40.1403 C   0  0  0  0  0  0
   74.1629   51.9154   39.6394 N   0  0  0  0  0  0
   75.5862   51.7783   40.1806 C   0  0  0  0  0  0
   72.6664   52.6907   41.9933 H   0  0  0  0  0  0
   72.5491   53.3463   39.7375 H   0  0  0  0  0  0
   74.1721   53.9906   39.7152 H   0  0  0  0  0  0
   76.2138   52.5768   39.7810 H   0  0  0  0  0  0
   75.9881   50.8598   39.7711 H   0  0  0  0  0  0
   74.0228   53.3179   44.1572 H   0  0  0  0  0  0
   78.2659   50.0552   41.5379 R   0  0  0  0  0  0
   73.6060   51.1349   39.9569 H   0  0  0  0  0  0
   73.3485   54.6452   42.1463 N   0  0  0  0  0  0
   74.1668   55.6665   41.8914 C   0  0  0  0  0  0
   75.1848   55.5524   41.2149 O   0  0  0  0  0  0
   73.6868   56.9379   42.5263 C   0  0  0  0  0  0
   74.7266   57.4430   43.4822 C   0  0  0  0  0  0
   74.2980   58.7241   44.2016 C   0  0  0  0  0  0
   75.0727   58.7330   45.5299 C   0  0  0  0  0  0
   75.6841   57.3308   45.6872 C   0  0  0  0  0  0
   75.0112   56.4643   44.6199 C   0  0  0  0  0  0
   73.5098   57.6858   41.7534 H   0  0  0  0  0  0
   72.7593   56.7468   43.0661 H   0  0  0  0  0  0
   75.6382   57.6227   42.9081 H   0  0  0  0  0  0
   74.4817   59.6175   43.6020 H   0  0  0  0  0  0
   73.2251   58.6890   44.4023 H   0  0  0  0  0  0
   75.8560   59.4935   45.5259 H   0  0  0  0  0  0
   74.4051   58.9694   46.3607 H   0  0  0  0  0  0
   76.7587   57.3752   45.4977 H   0  0  0  0  0  0
   75.5535   56.9258   46.6924 H   0  0  0  0  0  0
   74.0736   56.0570   45.0045 H   0  0  0  0  0  0
   75.6299   55.6210   44.3082 H   0  0  0  0  0  0
   72.5028   54.6944   42.6964 H   0  0  0  0  0  0
  1  2  1  0  0  0
  1  7  2  0  0  0
  1 20  1  0  0  0
  2  3  2  0  0  0
  2 13  1  0  0  0
  3  4  1  0  0  0
  3 10  1  0  0  0
  4  5  1  0  0  0
  4 19  1  0  0  0
  5  6  2  0  0  0
  5  7  1  0  0  0
  7  8  1  0  0  0
  8  9  3  0  0  0
 10 11  1  0  0  0
 10 14  1  0  0  0
 10 22  1  0  0  0
 11 12  1  0  0  0
 11 15  1  0  0  0
 11 16  1  0  0  0
 12 13  1  0  0  0
 12 21  1  0  0  0
 13 17  1  0  0  0
 13 18  1  0  0  0
 22 23  1  0  0  0
 22 42  1  0  0  0
 23 24  2  0  0  0
 23 25  1  0  0  0
 25 26  1  0  0  0
 25 31  1  0  0  0
 25 32  1  0  0  0
 26 27  1  0  0  0
 26 30  1  0  0  0
 26 33  1  0  0  0
 27 28  1  0  0  0
 27 34  1  0  0  0
 27 35  1  0  0  0
 28 29  1  0  0  0
 28 36  1  0  0  0
 28 37  1  0  0  0
 29 30  1  0  0  0
 29 38  1  0  0  0
 29 39  1  0  0  0
 30 40  1  0  0  0
 30 41  1  0  0  0
M  END
> <b_m_subgroup_collapsed>
0

> <s_m_subgroup_title>
enumerate_138-out

> <s_m_subgroupid>
enumerate_138-out

$$$$
