22958-6
                    3D
 Schrodinger Suite 2024-3.
 44 47  0  0  1  0            999 V2000
   76.7152   51.2564   42.5117 C   0  0  0  0  0  0
   75.6469   51.8672   41.7091 C   0  0  0  0  0  0
   74.7156   52.5958   42.3599 C   0  0  0  0  0  0
   74.7624   52.7581   43.7471 N   0  0  0  0  0  0
   75.7023   52.2182   44.5484 C   0  0  0  0  0  0
   75.6665   52.3767   45.7684 O   0  0  0  0  0  0
   76.7303   51.4438   43.8559 C   0  0  0  0  0  0
   77.7066   50.8711   44.7216 C   0  0  0  0  0  0
   78.4723   50.4247   45.4646 N   0  0  0  0  0  0
   73.5301   53.2752   41.6754 C   0  0  2  0  0  0
   73.5536   53.2080   40.1403 C   0  0  0  0  0  0
   74.1629   51.9154   39.6394 N   0  0  0  0  0  0
   75.5862   51.7783   40.1806 C   0  0  0  0  0  0
   72.6664   52.6907   41.9933 H   0  0  0  0  0  0
   72.5491   53.3463   39.7375 H   0  0  0  0  0  0
   74.1721   53.9906   39.7152 H   0  0  0  0  0  0
   76.2138   52.5768   39.7810 H   0  0  0  0  0  0
   75.9881   50.8598   39.7711 H   0  0  0  0  0  0
   74.0228   53.3179   44.1572 H   0  0  0  0  0  0
   78.2659   50.0552   41.5379 R   0  0  0  0  0  0
   73.6060   51.1349   39.9569 H   0  0  0  0  0  0
   73.3584   54.5701   42.1205 O   0  0  0  0  0  0
   72.1914   55.1793   41.7064 C   0  0  2  0  0  0
   72.0325   56.5983   42.2588 C   0  0  0  0  0  0
   70.5264   56.8875   42.1829 C   0  0  2  0  0  0
   69.9974   57.5210   43.3525 O   0  0  0  0  0  0
   69.5459   56.5230   44.2669 C   0  0  0  0  0  0
   68.8792   55.5361   43.3173 C   0  0  2  0  0  0
   68.6677   54.1875   43.9391 C   0  0  0  0  0  0
   69.8236   55.5218   42.1241 C   0  0  2  0  0  0
   70.9377   54.4584   42.2025 C   0  0  0  0  0  0
   72.2037   55.1999   40.6143 H   0  0  0  0  0  0
   72.3697   56.6296   43.2961 H   0  0  0  0  0  0
   72.6219   57.3304   41.7055 H   0  0  0  0  0  0
   70.2924   57.4832   41.2979 H   0  0  0  0  0  0
   70.3879   56.0740   44.7984 H   0  0  0  0  0  0
   68.8542   56.9293   45.0063 H   0  0  0  0  0  0
   67.8998   55.9175   43.0222 H   0  0  0  0  0  0
   69.6283   53.7747   44.2471 H   0  0  0  0  0  0
   68.0189   54.2865   44.8094 H   0  0  0  0  0  0
   68.2021   53.5214   43.2127 H   0  0  0  0  0  0
   69.2747   55.4182   41.1852 H   0  0  0  0  0  0
   70.7091   53.5678   41.6144 H   0  0  0  0  0  0
   71.0970   54.1294   43.2319 H   0  0  0  0  0  0
  1  2  1  0  0  0
  1  7  2  0  0  0
  1 20  1  0  0  0
  2  3  2  0  0  0
  2 13  1  0  0  0
  3  4  1  0  0  0
  3 10  1  0  0  0
  4  5  1  0  0  0
  4 19  1  0  0  0
  5  6  2  0  0  0
  5  7  1  0  0  0
  7  8  1  0  0  0
  8  9  3  0  0  0
 10 11  1  0  0  0
 10 14  1  0  0  0
 10 22  1  0  0  0
 11 12  1  0  0  0
 11 15  1  0  0  0
 11 16  1  0  0  0
 12 13  1  0  0  0
 12 21  1  0  0  0
 13 17  1  0  0  0
 13 18  1  0  0  0
 22 23  1  0  0  0
 23 24  1  0  0  0
 23 31  1  0  0  0
 23 32  1  0  0  0
 24 25  1  0  0  0
 24 33  1  0  0  0
 24 34  1  0  0  0
 25 26  1  0  0  0
 25 30  1  0  0  0
 25 35  1  0  0  0
 26 27  1  0  0  0
 27 28  1  0  0  0
 27 36  1  0  0  0
 27 37  1  0  0  0
 28 29  1  0  0  0
 28 30  1  0  0  0
 28 38  1  0  0  0
 29 39  1  0  0  0
 29 40  1  0  0  0
 29 41  1  0  0  0
 30 31  1  0  0  0
 30 42  1  0  0  0
 31 43  1  0  0  0
 31 44  1  0  0  0
M  END
> <b_m_subgroup_collapsed>
0

> <s_m_subgroup_title>
enumerate_138-out

> <s_m_subgroupid>
enumerate_138-out

$$$$
