14754-1
                    3D
 Schrodinger Suite 2024-3.
 41 42  0  0  1  0            999 V2000
   76.7152   51.2564   42.5117 C   0  0  0  0  0  0
   75.6469   51.8672   41.7091 C   0  0  0  0  0  0
   74.7156   52.5958   42.3599 C   0  0  0  0  0  0
   74.7624   52.7581   43.7471 N   0  0  0  0  0  0
   75.7023   52.2182   44.5484 C   0  0  0  0  0  0
   75.6665   52.3767   45.7684 O   0  0  0  0  0  0
   76.7303   51.4438   43.8559 C   0  0  0  0  0  0
   77.7066   50.8711   44.7216 C   0  0  0  0  0  0
   78.4723   50.4247   45.4646 N   0  0  0  0  0  0
   73.5301   53.2752   41.6754 C   0  0  2  0  0  0
   73.5536   53.2080   40.1403 C   0  0  0  0  0  0
   74.1629   51.9154   39.6394 N   0  0  0  0  0  0
   75.5862   51.7783   40.1806 C   0  0  0  0  0  0
   72.6664   52.6907   41.9933 H   0  0  0  0  0  0
   72.5491   53.3463   39.7375 H   0  0  0  0  0  0
   74.1721   53.9906   39.7152 H   0  0  0  0  0  0
   76.2138   52.5768   39.7810 H   0  0  0  0  0  0
   75.9881   50.8598   39.7711 H   0  0  0  0  0  0
   74.0228   53.3179   44.1572 H   0  0  0  0  0  0
   78.2659   50.0552   41.5379 R   0  0  0  0  0  0
   73.6060   51.1349   39.9569 H   0  0  0  0  0  0
   71.1715   57.0649   41.1865 C   0  0  0  0  0  0
   72.4521   57.3206   41.9247 C   0  0  0  0  0  0
   72.4548   56.5408   43.2061 C   0  0  0  0  0  0
   73.7353   56.7965   43.9443 C   0  0  0  0  0  0
   71.2944   56.9693   44.0546 C   0  0  0  0  0  0
   72.3374   55.0769   42.9008 C   0  0  0  0  0  0
   71.4319   54.3430   43.2857 O   0  0  0  0  0  0
   73.3485   54.6452   42.1463 N   0  0  0  0  0  0
   71.1696   57.6316   40.2554 H   0  0  0  0  0  0
   70.3283   57.3762   41.8031 H   0  0  0  0  0  0
   71.0863   56.0011   40.9647 H   0  0  0  0  0  0
   73.2953   57.0093   41.3081 H   0  0  0  0  0  0
   72.5374   58.3844   42.1466 H   0  0  0  0  0  0
   73.8206   57.8603   44.1661 H   0  0  0  0  0  0
   73.7373   56.2299   44.8754 H   0  0  0  0  0  0
   74.5785   56.4852   43.3277 H   0  0  0  0  0  0
   71.3797   58.0330   44.2764 H   0  0  0  0  0  0
   70.3639   56.7834   43.5182 H   0  0  0  0  0  0
   71.2964   56.4026   44.9857 H   0  0  0  0  0  0
   74.1123   55.2131   41.8084 H   0  0  0  0  0  0
  1  2  1  0  0  0
  1  7  2  0  0  0
  1 20  1  0  0  0
  2  3  2  0  0  0
  2 13  1  0  0  0
  3  4  1  0  0  0
  3 10  1  0  0  0
  4  5  1  0  0  0
  4 19  1  0  0  0
  5  6  2  0  0  0
  5  7  1  0  0  0
  7  8  1  0  0  0
  8  9  3  0  0  0
 10 11  1  0  0  0
 10 14  1  0  0  0
 10 29  1  0  0  0
 11 12  1  0  0  0
 11 15  1  0  0  0
 11 16  1  0  0  0
 12 13  1  0  0  0
 12 21  1  0  0  0
 13 17  1  0  0  0
 13 18  1  0  0  0
 22 23  1  0  0  0
 22 30  1  0  0  0
 22 31  1  0  0  0
 22 32  1  0  0  0
 23 24  1  0  0  0
 23 33  1  0  0  0
 23 34  1  0  0  0
 24 25  1  0  0  0
 24 26  1  0  0  0
 24 27  1  0  0  0
 25 35  1  0  0  0
 25 36  1  0  0  0
 25 37  1  0  0  0
 26 38  1  0  0  0
 26 39  1  0  0  0
 26 40  1  0  0  0
 27 28  2  0  0  0
 27 29  1  0  0  0
 29 41  1  0  0  0
M  END
> <b_m_subgroup_collapsed>
1

> <s_m_subgroup_title>
enumerate_137-out

> <s_m_subgroupid>
enumerate_137-out

$$$$
