45112-1
                    3D
 Schrodinger Suite 2024-3.
 45 48  0  0  1  0            999 V2000
   76.7152   51.2564   42.5117 C   0  0  0  0  0  0
   75.6469   51.8672   41.7091 C   0  0  0  0  0  0
   74.7156   52.5958   42.3599 C   0  0  0  0  0  0
   74.7624   52.7581   43.7471 N   0  0  0  0  0  0
   75.7023   52.2182   44.5484 C   0  0  0  0  0  0
   75.6665   52.3767   45.7684 O   0  0  0  0  0  0
   76.7303   51.4438   43.8559 C   0  0  0  0  0  0
   77.7066   50.8711   44.7216 C   0  0  0  0  0  0
   78.4723   50.4247   45.4646 N   0  0  0  0  0  0
   73.5301   53.2752   41.6754 C   0  0  2  0  0  0
   73.5536   53.2080   40.1403 C   0  0  0  0  0  0
   74.1629   51.9154   39.6394 N   0  0  0  0  0  0
   75.5862   51.7783   40.1806 C   0  0  0  0  0  0
   72.6664   52.6907   41.9933 H   0  0  0  0  0  0
   72.5491   53.3463   39.7375 H   0  0  0  0  0  0
   74.1721   53.9906   39.7152 H   0  0  0  0  0  0
   76.2138   52.5768   39.7810 H   0  0  0  0  0  0
   75.9881   50.8598   39.7711 H   0  0  0  0  0  0
   74.0228   53.3179   44.1572 H   0  0  0  0  0  0
   78.2659   50.0552   41.5379 R   0  0  0  0  0  0
   73.6060   51.1349   39.9569 H   0  0  0  0  0  0
   73.3435   54.6827   42.1592 C   0  0  1  0  0  0
   72.0409   54.7047   42.9926 C   0  0  0  0  0  0
   71.5550   56.1195   43.3732 C   0  0  0  0  0  0
   71.6831   57.1422   42.2240 C   0  0  0  0  0  0
   72.9981   57.0314   41.4176 C   0  0  1  0  0  0
   74.2667   57.5039   42.1652 C   0  0  0  0  0  0
   74.7203   56.5634   43.3021 C   0  0  0  0  0  0
   74.6245   55.0668   42.9359 C   0  0  0  0  0  0
   73.1892   55.5893   40.9318 C   0  0  0  0  0  0
   71.2565   54.2235   42.4068 H   0  0  0  0  0  0
   72.1544   54.0956   43.8901 H   0  0  0  0  0  0
   72.0864   56.4745   44.2518 H   0  0  0  0  0  0
   70.5140   56.0678   43.6938 H   0  0  0  0  0  0
   71.5593   58.1545   42.6105 H   0  0  0  0  0  0
   70.8507   56.9852   41.5367 H   0  0  0  0  0  0
   72.8886   57.6709   40.5403 H   0  0  0  0  0  0
   75.0791   57.5760   41.4408 H   0  0  0  0  0  0
   74.1255   58.5140   42.5512 H   0  0  0  0  0  0
   75.7487   56.8012   43.5763 H   0  0  0  0  0  0
   74.1509   56.7655   44.2050 H   0  0  0  0  0  0
   74.7206   54.4566   43.8346 H   0  0  0  0  0  0
   75.4851   54.8144   42.3148 H   0  0  0  0  0  0
   74.0676   55.5155   40.2890 H   0  0  0  0  0  0
   72.3377   55.2732   40.3274 H   0  0  0  0  0  0
  1  2  1  0  0  0
  1  7  2  0  0  0
  1 20  1  0  0  0
  2  3  2  0  0  0
  2 13  1  0  0  0
  3  4  1  0  0  0
  3 10  1  0  0  0
  4  5  1  0  0  0
  4 19  1  0  0  0
  5  6  2  0  0  0
  5  7  1  0  0  0
  7  8  1  0  0  0
  8  9  3  0  0  0
 10 11  1  0  0  0
 10 14  1  0  0  0
 10 22  1  0  0  0
 11 12  1  0  0  0
 11 15  1  0  0  0
 11 16  1  0  0  0
 12 13  1  0  0  0
 12 21  1  0  0  0
 13 17  1  0  0  0
 13 18  1  0  0  0
 22 23  1  0  0  0
 22 29  1  0  0  0
 22 30  1  0  0  0
 23 24  1  0  0  0
 23 31  1  0  0  0
 23 32  1  0  0  0
 24 25  1  0  0  0
 24 33  1  0  0  0
 24 34  1  0  0  0
 25 26  1  0  0  0
 25 35  1  0  0  0
 25 36  1  0  0  0
 26 27  1  0  0  0
 26 30  1  0  0  0
 26 37  1  0  0  0
 27 28  1  0  0  0
 27 38  1  0  0  0
 27 39  1  0  0  0
 28 29  1  0  0  0
 28 40  1  0  0  0
 28 41  1  0  0  0
 29 42  1  0  0  0
 29 43  1  0  0  0
 30 44  1  0  0  0
 30 45  1  0  0  0
M  END
> <b_m_subgroup_collapsed>
1

> <s_m_subgroup_title>
enumerate_137-out

> <s_m_subgroupid>
enumerate_137-out

$$$$
