26169-1
                    3D
 Schrodinger Suite 2024-3.
 41 43  0  0  1  0            999 V2000
   76.7152   51.2564   42.5117 C   0  0  0  0  0  0
   75.6469   51.8672   41.7091 C   0  0  0  0  0  0
   74.7156   52.5958   42.3599 C   0  0  0  0  0  0
   74.7624   52.7581   43.7471 N   0  0  0  0  0  0
   75.7023   52.2182   44.5484 C   0  0  0  0  0  0
   75.6665   52.3767   45.7684 O   0  0  0  0  0  0
   76.7303   51.4438   43.8559 C   0  0  0  0  0  0
   77.7066   50.8711   44.7216 C   0  0  0  0  0  0
   78.4723   50.4247   45.4646 N   0  0  0  0  0  0
   73.5301   53.2752   41.6754 C   0  0  2  0  0  0
   73.5536   53.2080   40.1403 C   0  0  0  0  0  0
   74.1629   51.9154   39.6394 N   0  0  0  0  0  0
   75.5862   51.7783   40.1806 C   0  0  0  0  0  0
   72.6664   52.6907   41.9933 H   0  0  0  0  0  0
   72.5491   53.3463   39.7375 H   0  0  0  0  0  0
   74.1721   53.9906   39.7152 H   0  0  0  0  0  0
   76.2138   52.5768   39.7810 H   0  0  0  0  0  0
   75.9881   50.8598   39.7711 H   0  0  0  0  0  0
   74.0228   53.3179   44.1572 H   0  0  0  0  0  0
   78.2659   50.0552   41.5379 R   0  0  0  0  0  0
   73.6060   51.1349   39.9569 H   0  0  0  0  0  0
   71.9738   60.1204   39.3006 C   0  0  0  0  0  0
   72.7995   59.3197   40.2635 C   0  0  0  0  0  0
   72.3145   57.9003   40.2779 C   0  0  0  0  0  0
   73.1402   57.0996   41.2408 C   0  0  0  0  0  0
   72.6552   55.6802   41.2552 C   0  0  2  0  0  0
   71.9479   55.1629   42.4874 C   0  0  0  0  0  0
   73.3435   54.6827   42.1592 C   0  0  1  0  0  0
   72.3262   61.1518   39.2901 H   0  0  0  0  0  0
   72.0661   59.6947   38.3014 H   0  0  0  0  0  0
   70.9291   60.0965   39.6106 H   0  0  0  0  0  0
   72.7072   59.7454   41.2627 H   0  0  0  0  0  0
   73.8442   59.3435   39.9535 H   0  0  0  0  0  0
   72.4068   57.4746   39.2787 H   0  0  0  0  0  0
   71.2698   57.8765   40.5879 H   0  0  0  0  0  0
   73.0478   57.5253   42.2400 H   0  0  0  0  0  0
   74.1849   57.1234   40.9308 H   0  0  0  0  0  0
   72.3109   55.3513   40.2724 H   0  0  0  0  0  0
   71.1102   54.4731   42.3640 H   0  0  0  0  0  0
   71.8076   55.8355   43.3363 H   0  0  0  0  0  0
   74.1767   55.0203   42.7793 H   0  0  0  0  0  0
  1  2  1  0  0  0
  1  7  2  0  0  0
  1 20  1  0  0  0
  2  3  2  0  0  0
  2 13  1  0  0  0
  3  4  1  0  0  0
  3 10  1  0  0  0
  4  5  1  0  0  0
  4 19  1  0  0  0
  5  6  2  0  0  0
  5  7  1  0  0  0
  7  8  1  0  0  0
  8  9  3  0  0  0
 10 11  1  0  0  0
 10 14  1  0  0  0
 10 28  1  0  0  0
 11 12  1  0  0  0
 11 15  1  0  0  0
 11 16  1  0  0  0
 12 13  1  0  0  0
 12 21  1  0  0  0
 13 17  1  0  0  0
 13 18  1  0  0  0
 22 23  1  0  0  0
 22 29  1  0  0  0
 22 30  1  0  0  0
 22 31  1  0  0  0
 23 24  1  0  0  0
 23 32  1  0  0  0
 23 33  1  0  0  0
 24 25  1  0  0  0
 24 34  1  0  0  0
 24 35  1  0  0  0
 25 26  1  0  0  0
 25 36  1  0  0  0
 25 37  1  0  0  0
 26 27  1  0  0  0
 26 28  1  0  0  0
 26 38  1  0  0  0
 27 28  1  0  0  0
 27 39  1  0  0  0
 27 40  1  0  0  0
 28 41  1  0  0  0
M  END
> <b_m_subgroup_collapsed>
0

> <s_m_subgroup_title>
enumerate_138-out

> <s_m_subgroupid>
enumerate_138-out

$$$$
