11948-1
                    3D
 Schrodinger Suite 2024-3.
 42 45  0  0  1  0            999 V2000
   76.7152   51.2564   42.5117 C   0  0  0  0  0  0
   75.6469   51.8672   41.7091 C   0  0  0  0  0  0
   74.7156   52.5958   42.3599 C   0  0  0  0  0  0
   74.7624   52.7581   43.7471 N   0  0  0  0  0  0
   75.7023   52.2182   44.5484 C   0  0  0  0  0  0
   75.6665   52.3767   45.7684 O   0  0  0  0  0  0
   76.7303   51.4438   43.8559 C   0  0  0  0  0  0
   77.7066   50.8711   44.7216 C   0  0  0  0  0  0
   78.4723   50.4247   45.4646 N   0  0  0  0  0  0
   73.5301   53.2752   41.6754 C   0  0  2  0  0  0
   73.5536   53.2080   40.1403 C   0  0  0  0  0  0
   74.1629   51.9154   39.6394 N   0  0  0  0  0  0
   75.5862   51.7783   40.1806 C   0  0  0  0  0  0
   72.6664   52.6907   41.9933 H   0  0  0  0  0  0
   72.5491   53.3463   39.7375 H   0  0  0  0  0  0
   74.1721   53.9906   39.7152 H   0  0  0  0  0  0
   76.2138   52.5768   39.7810 H   0  0  0  0  0  0
   75.9881   50.8598   39.7711 H   0  0  0  0  0  0
   74.0228   53.3179   44.1572 H   0  0  0  0  0  0
   78.2659   50.0552   41.5379 R   0  0  0  0  0  0
   73.6060   51.1349   39.9569 H   0  0  0  0  0  0
   73.3435   54.6827   42.1592 C   0  0  2  0  0  0
   72.0378   55.3019   41.6681 C   0  0  0  0  0  0
   72.2844   56.8020   41.8039 C   0  0  0  0  0  0
   73.7614   56.9939   41.4241 C   0  0  1  0  0  0
   74.5114   58.0067   42.3018 C   0  0  0  0  0  0
   75.1948   57.1660   43.3806 C   0  0  0  0  0  0
   75.5773   55.8737   42.6584 C   0  0  0  0  0  0
   74.4430   55.6297   41.6524 C   0  0  1  0  0  0
   73.3364   54.6559   43.2500 H   0  0  0  0  0  0
   71.8729   55.0439   40.6209 H   0  0  0  0  0  0
   71.1712   54.9645   42.2377 H   0  0  0  0  0  0
   71.6129   57.3940   41.1809 H   0  0  0  0  0  0
   72.1158   57.0978   42.8406 H   0  0  0  0  0  0
   73.8297   57.2769   40.3723 H   0  0  0  0  0  0
   75.2721   58.5098   41.7031 H   0  0  0  0  0  0
   73.8633   58.7798   42.7166 H   0  0  0  0  0  0
   76.0536   57.6696   43.8256 H   0  0  0  0  0  0
   74.4865   56.9456   44.1805 H   0  0  0  0  0  0
   75.7335   55.0384   43.3422 H   0  0  0  0  0  0
   76.5125   56.0279   42.1181 H   0  0  0  0  0  0
   74.8432   55.2473   40.7118 H   0  0  0  0  0  0
  1  2  1  0  0  0
  1  7  2  0  0  0
  1 20  1  0  0  0
  2  3  2  0  0  0
  2 13  1  0  0  0
  3  4  1  0  0  0
  3 10  1  0  0  0
  4  5  1  0  0  0
  4 19  1  0  0  0
  5  6  2  0  0  0
  5  7  1  0  0  0
  7  8  1  0  0  0
  8  9  3  0  0  0
 10 11  1  0  0  0
 10 14  1  0  0  0
 10 22  1  0  0  0
 11 12  1  0  0  0
 11 15  1  0  0  0
 11 16  1  0  0  0
 12 13  1  0  0  0
 12 21  1  0  0  0
 13 17  1  0  0  0
 13 18  1  0  0  0
 22 23  1  0  0  0
 22 29  1  0  0  0
 22 30  1  0  0  0
 23 24  1  0  0  0
 23 31  1  0  0  0
 23 32  1  0  0  0
 24 25  1  0  0  0
 24 33  1  0  0  0
 24 34  1  0  0  0
 25 26  1  0  0  0
 25 29  1  0  0  0
 25 35  1  0  0  0
 26 27  1  0  0  0
 26 36  1  0  0  0
 26 37  1  0  0  0
 27 28  1  0  0  0
 27 38  1  0  0  0
 27 39  1  0  0  0
 28 29  1  0  0  0
 28 40  1  0  0  0
 28 41  1  0  0  0
 29 42  1  0  0  0
M  END
> <b_m_subgroup_collapsed>
1

> <s_m_subgroup_title>
enumerate_137-out

> <s_m_subgroupid>
enumerate_137-out

$$$$
