1710-1
                    3D
 Schrodinger Suite 2024-3.
 46 50  0  0  1  0            999 V2000
   76.7152   51.2564   42.5117 C   0  0  0  0  0  0
   75.6469   51.8672   41.7091 C   0  0  0  0  0  0
   74.7156   52.5958   42.3599 C   0  0  0  0  0  0
   74.7624   52.7581   43.7471 N   0  0  0  0  0  0
   75.7023   52.2182   44.5484 C   0  0  0  0  0  0
   75.6665   52.3767   45.7684 O   0  0  0  0  0  0
   76.7303   51.4438   43.8559 C   0  0  0  0  0  0
   77.7066   50.8711   44.7216 C   0  0  0  0  0  0
   78.4723   50.4247   45.4646 N   0  0  0  0  0  0
   73.5301   53.2752   41.6754 C   0  0  2  0  0  0
   73.5536   53.2080   40.1403 C   0  0  0  0  0  0
   74.1629   51.9154   39.6394 N   0  0  0  0  0  0
   75.5862   51.7783   40.1806 C   0  0  0  0  0  0
   72.6664   52.6907   41.9933 H   0  0  0  0  0  0
   72.5491   53.3463   39.7375 H   0  0  0  0  0  0
   74.1721   53.9906   39.7152 H   0  0  0  0  0  0
   76.2138   52.5768   39.7810 H   0  0  0  0  0  0
   75.9881   50.8598   39.7711 H   0  0  0  0  0  0
   74.0228   53.3179   44.1572 H   0  0  0  0  0  0
   78.2659   50.0552   41.5379 R   0  0  0  0  0  0
   73.6060   51.1349   39.9569 H   0  0  0  0  0  0
   73.3435   54.6827   42.1592 C   0  0  0  0  0  0
   72.0522   54.7693   43.0022 C   0  0  0  0  0  0
   71.8605   56.2188   43.4997 C   0  0  2  0  0  0
   71.7486   57.1696   42.2877 C   0  0  0  0  0  0
   73.0401   57.0814   41.4455 C   0  0  1  0  0  0
   74.2501   57.4934   42.3124 C   0  0  0  0  0  0
   74.3606   56.5423   43.5242 C   0  0  1  0  0  0
   73.0699   56.6300   44.3679 C   0  0  0  0  0  0
   74.5540   55.0931   43.0264 C   0  0  0  0  0  0
   73.2323   55.6325   40.9464 C   0  0  0  0  0  0
   71.1918   54.4565   42.4091 H   0  0  0  0  0  0
   72.1068   54.0834   43.8486 H   0  0  0  0  0  0
   70.9487   56.2806   44.0950 H   0  0  0  0  0  0
   71.5866   58.1943   42.6249 H   0  0  0  0  0  0
   70.8821   56.9065   41.6796 H   0  0  0  0  0  0
   72.9617   57.7527   40.5894 H   0  0  0  0  0  0
   75.1666   57.4613   41.7219 H   0  0  0  0  0  0
   74.1391   58.5245   42.6504 H   0  0  0  0  0  0
   75.2149   56.8327   44.1368 H   0  0  0  0  0  0
   72.9350   57.6435   44.7480 H   0  0  0  0  0  0
   73.1451   55.9822   45.2422 H   0  0  0  0  0  0
   74.6602   54.4137   43.8731 H   0  0  0  0  0  0
   75.4766   55.0115   42.4502 H   0  0  0  0  0  0
   74.1277   55.5617   40.3274 H   0  0  0  0  0  0
   72.3962   55.3378   40.3109 H   0  0  0  0  0  0
  1  2  1  0  0  0
  1  7  2  0  0  0
  1 20  1  0  0  0
  2  3  2  0  0  0
  2 13  1  0  0  0
  3  4  1  0  0  0
  3 10  1  0  0  0
  4  5  1  0  0  0
  4 19  1  0  0  0
  5  6  2  0  0  0
  5  7  1  0  0  0
  7  8  1  0  0  0
  8  9  3  0  0  0
 10 11  1  0  0  0
 10 14  1  0  0  0
 10 22  1  0  0  0
 11 12  1  0  0  0
 11 15  1  0  0  0
 11 16  1  0  0  0
 12 13  1  0  0  0
 12 21  1  0  0  0
 13 17  1  0  0  0
 13 18  1  0  0  0
 22 23  1  0  0  0
 22 30  1  0  0  0
 22 31  1  0  0  0
 23 24  1  0  0  0
 23 32  1  0  0  0
 23 33  1  0  0  0
 24 25  1  0  0  0
 24 29  1  0  0  0
 24 34  1  0  0  0
 25 26  1  0  0  0
 25 35  1  0  0  0
 25 36  1  0  0  0
 26 27  1  0  0  0
 26 31  1  0  0  0
 26 37  1  0  0  0
 27 28  1  0  0  0
 27 38  1  0  0  0
 27 39  1  0  0  0
 28 29  1  0  0  0
 28 30  1  0  0  0
 28 40  1  0  0  0
 29 41  1  0  0  0
 29 42  1  0  0  0
 30 43  1  0  0  0
 30 44  1  0  0  0
 31 45  1  0  0  0
 31 46  1  0  0  0
M  END
> <b_m_subgroup_collapsed>
1

> <s_m_subgroup_title>
enumerate_137-out

> <s_m_subgroupid>
enumerate_137-out

$$$$
