23405-1
                    3D
 Schrodinger Suite 2024-3.
 39 40  0  0  1  0            999 V2000
   76.7152   51.2564   42.5117 C   0  0  0  0  0  0
   75.6469   51.8672   41.7091 C   0  0  0  0  0  0
   74.7156   52.5958   42.3599 C   0  0  0  0  0  0
   74.7624   52.7581   43.7471 N   0  0  0  0  0  0
   75.7023   52.2182   44.5484 C   0  0  0  0  0  0
   75.6665   52.3767   45.7684 O   0  0  0  0  0  0
   76.7303   51.4438   43.8559 C   0  0  0  0  0  0
   77.7066   50.8711   44.7216 C   0  0  0  0  0  0
   78.4723   50.4247   45.4646 N   0  0  0  0  0  0
   73.5301   53.2752   41.6754 C   0  0  2  0  0  0
   73.5536   53.2080   40.1403 C   0  0  0  0  0  0
   74.1629   51.9154   39.6394 N   0  0  0  0  0  0
   75.5862   51.7783   40.1806 C   0  0  0  0  0  0
   72.6664   52.6907   41.9933 H   0  0  0  0  0  0
   72.5491   53.3463   39.7375 H   0  0  0  0  0  0
   74.1721   53.9906   39.7152 H   0  0  0  0  0  0
   76.2138   52.5768   39.7810 H   0  0  0  0  0  0
   75.9881   50.8598   39.7711 H   0  0  0  0  0  0
   74.0228   53.3179   44.1572 H   0  0  0  0  0  0
   78.2659   50.0552   41.5379 R   0  0  0  0  0  0
   73.6060   51.1349   39.9569 H   0  0  0  0  0  0
   73.3086   54.9454   42.2495 S   0  0  0  0  0  0
   74.3966   55.2403   43.1884 O   0  0  0  0  0  0
   73.0545   55.7884   41.0761 O   0  0  0  0  0  0
   71.8317   54.8582   43.1654 N   0  0  0  0  0  0
   70.7446   54.4175   42.2962 C   0  0  0  0  0  0
   71.5171   56.1761   43.7093 C   0  0  0  0  0  0
   72.6336   56.6275   44.6036 C   0  0  0  0  0  0
   70.2438   56.1002   44.4987 C   0  0  0  0  0  0
   69.8197   54.3631   42.8703 H   0  0  0  0  0  0
   70.6231   55.1273   41.4780 H   0  0  0  0  0  0
   70.9794   53.4331   41.8913 H   0  0  0  0  0  0
   71.3960   56.8871   42.8921 H   0  0  0  0  0  0
   72.3986   57.6113   45.0097 H   0  0  0  0  0  0
   72.7546   55.9165   45.4209 H   0  0  0  0  0  0
   73.5588   56.6826   44.0300 H   0  0  0  0  0  0
   70.0089   57.0840   44.9048 H   0  0  0  0  0  0
   69.4325   55.7721   43.8489 H   0  0  0  0  0  0
   70.3648   55.3892   45.3160 H   0  0  0  0  0  0
  1  2  1  0  0  0
  1  7  2  0  0  0
  1 20  1  0  0  0
  2  3  2  0  0  0
  2 13  1  0  0  0
  3  4  1  0  0  0
  3 10  1  0  0  0
  4  5  1  0  0  0
  4 19  1  0  0  0
  5  6  2  0  0  0
  5  7  1  0  0  0
  7  8  1  0  0  0
  8  9  3  0  0  0
 10 11  1  0  0  0
 10 14  1  0  0  0
 10 22  1  0  0  0
 11 12  1  0  0  0
 11 15  1  0  0  0
 11 16  1  0  0  0
 12 13  1  0  0  0
 12 21  1  0  0  0
 13 17  1  0  0  0
 13 18  1  0  0  0
 22 23  2  0  0  0
 22 24  2  0  0  0
 22 25  1  0  0  0
 25 26  1  0  0  0
 25 27  1  0  0  0
 26 30  1  0  0  0
 26 31  1  0  0  0
 26 32  1  0  0  0
 27 28  1  0  0  0
 27 29  1  0  0  0
 27 33  1  0  0  0
 28 34  1  0  0  0
 28 35  1  0  0  0
 28 36  1  0  0  0
 29 37  1  0  0  0
 29 38  1  0  0  0
 29 39  1  0  0  0
M  END
> <b_m_subgroup_collapsed>
0

> <s_m_subgroup_title>
enumerate_138-out

> <s_m_subgroupid>
enumerate_138-out

$$$$
