22915-2
                    3D
 Schrodinger Suite 2024-3.
 43 46  0  0  1  0            999 V2000
   76.7152   51.2564   42.5117 C   0  0  0  0  0  0
   75.6469   51.8672   41.7091 C   0  0  0  0  0  0
   74.7156   52.5958   42.3599 C   0  0  0  0  0  0
   74.7624   52.7581   43.7471 N   0  0  0  0  0  0
   75.7023   52.2182   44.5484 C   0  0  0  0  0  0
   75.6665   52.3767   45.7684 O   0  0  0  0  0  0
   76.7303   51.4438   43.8559 C   0  0  0  0  0  0
   77.7066   50.8711   44.7216 C   0  0  0  0  0  0
   78.4723   50.4247   45.4646 N   0  0  0  0  0  0
   73.5301   53.2752   41.6754 C   0  0  2  0  0  0
   73.5536   53.2080   40.1403 C   0  0  0  0  0  0
   74.1629   51.9154   39.6394 N   0  0  0  0  0  0
   75.5862   51.7783   40.1806 C   0  0  0  0  0  0
   72.6664   52.6907   41.9933 H   0  0  0  0  0  0
   72.5491   53.3463   39.7375 H   0  0  0  0  0  0
   74.1721   53.9906   39.7152 H   0  0  0  0  0  0
   76.2138   52.5768   39.7810 H   0  0  0  0  0  0
   75.9881   50.8598   39.7711 H   0  0  0  0  0  0
   74.0228   53.3179   44.1572 H   0  0  0  0  0  0
   78.2659   50.0552   41.5379 R   0  0  0  0  0  0
   73.6060   51.1349   39.9569 H   0  0  0  0  0  0
   73.3584   54.5701   42.1205 O   0  0  0  0  0  0
   72.1914   55.1793   41.7064 C   0  0  1  0  0  0
   70.9417   54.4615   42.2088 C   0  0  0  0  0  0
   69.8257   55.5159   42.1345 C   0  0  1  0  0  0
   68.8582   55.4948   43.3270 C   0  0  0  0  0  0
   69.3978   56.5498   44.2932 C   0  0  0  0  0  0
   69.9584   57.6395   43.3789 C   0  0  0  0  0  0
   70.5296   56.8875   42.1679 C   0  0  1  0  0  0
   72.0351   56.5925   42.2614 C   0  0  0  0  0  0
   72.1943   55.2047   40.6157 H   0  0  0  0  0  0
   70.7110   53.5679   41.6278 H   0  0  0  0  0  0
   71.1022   54.1485   43.2417 H   0  0  0  0  0  0
   69.2786   55.3968   41.1976 H   0  0  0  0  0  0
   67.8637   55.7913   42.9905 H   0  0  0  0  0  0
   68.7634   54.5103   43.7869 H   0  0  0  0  0  0
   68.6346   56.9246   44.9761 H   0  0  0  0  0  0
   70.2020   56.1228   44.8942 H   0  0  0  0  0  0
   70.6931   58.2726   43.8781 H   0  0  0  0  0  0
   69.1439   58.2869   43.0509 H   0  0  0  0  0  0
   70.3261   57.4370   41.2471 H   0  0  0  0  0  0
   72.3620   56.6041   43.3024 H   0  0  0  0  0  0
   72.6380   57.3229   41.7208 H   0  0  0  0  0  0
  1  2  1  0  0  0
  1  7  2  0  0  0
  1 20  1  0  0  0
  2  3  2  0  0  0
  2 13  1  0  0  0
  3  4  1  0  0  0
  3 10  1  0  0  0
  4  5  1  0  0  0
  4 19  1  0  0  0
  5  6  2  0  0  0
  5  7  1  0  0  0
  7  8  1  0  0  0
  8  9  3  0  0  0
 10 11  1  0  0  0
 10 14  1  0  0  0
 10 22  1  0  0  0
 11 12  1  0  0  0
 11 15  1  0  0  0
 11 16  1  0  0  0
 12 13  1  0  0  0
 12 21  1  0  0  0
 13 17  1  0  0  0
 13 18  1  0  0  0
 22 23  1  0  0  0
 23 24  1  0  0  0
 23 30  1  0  0  0
 23 31  1  0  0  0
 24 25  1  0  0  0
 24 32  1  0  0  0
 24 33  1  0  0  0
 25 26  1  0  0  0
 25 29  1  0  0  0
 25 34  1  0  0  0
 26 27  1  0  0  0
 26 35  1  0  0  0
 26 36  1  0  0  0
 27 28  1  0  0  0
 27 37  1  0  0  0
 27 38  1  0  0  0
 28 29  1  0  0  0
 28 39  1  0  0  0
 28 40  1  0  0  0
 29 30  1  0  0  0
 29 41  1  0  0  0
 30 42  1  0  0  0
 30 43  1  0  0  0
M  END
> <b_m_subgroup_collapsed>
1

> <s_m_subgroup_title>
enumerate_137-out

> <s_m_subgroupid>
enumerate_137-out

$$$$
