34068-2
                    3D
 Schrodinger Suite 2024-3.
 43 46  0  0  1  0            999 V2000
   76.7152   51.2564   42.5117 C   0  0  0  0  0  0
   75.6469   51.8672   41.7091 C   0  0  0  0  0  0
   74.7156   52.5958   42.3599 C   0  0  0  0  0  0
   74.7624   52.7581   43.7471 N   0  0  0  0  0  0
   75.7023   52.2182   44.5484 C   0  0  0  0  0  0
   75.6665   52.3767   45.7684 O   0  0  0  0  0  0
   76.7303   51.4438   43.8559 C   0  0  0  0  0  0
   77.7066   50.8711   44.7216 C   0  0  0  0  0  0
   78.4723   50.4247   45.4646 N   0  0  0  0  0  0
   73.5301   53.2752   41.6754 C   0  0  2  0  0  0
   73.5536   53.2080   40.1403 C   0  0  0  0  0  0
   74.1629   51.9154   39.6394 N   0  0  0  0  0  0
   75.5862   51.7783   40.1806 C   0  0  0  0  0  0
   72.6664   52.6907   41.9933 H   0  0  0  0  0  0
   72.5491   53.3463   39.7375 H   0  0  0  0  0  0
   74.1721   53.9906   39.7152 H   0  0  0  0  0  0
   76.2138   52.5768   39.7810 H   0  0  0  0  0  0
   75.9881   50.8598   39.7711 H   0  0  0  0  0  0
   74.0228   53.3179   44.1572 H   0  0  0  0  0  0
   78.2659   50.0552   41.5379 R   0  0  0  0  0  0
   73.6060   51.1349   39.9569 H   0  0  0  0  0  0
   73.3435   54.6827   42.1592 C   0  0  1  0  0  0
   72.6552   55.6802   41.2552 C   0  0  0  0  0  0
   71.9479   55.1629   42.4874 C   0  0  1  0  0  0
   70.7974   54.2155   42.3179 C   0  0  0  0  0  0
   69.5702   54.9748   42.0964 N   0  0  0  0  0  0
   68.7414   55.4022   43.0494 C   0  0  0  0  0  0
   68.9341   55.1931   44.2435 O   0  0  0  0  0  0
   67.5745   56.1522   42.4786 C   0  0  0  0  0  0
   66.3650   55.3746   42.0109 C   0  0  0  0  0  0
   66.2867   56.2099   43.2687 C   0  0  0  0  0  0
   74.1767   55.0203   42.7793 H   0  0  0  0  0  0
   73.0083   56.7136   41.2447 H   0  0  0  0  0  0
   72.3109   55.3513   40.2724 H   0  0  0  0  0  0
   71.8076   55.8355   43.3363 H   0  0  0  0  0  0
   70.9834   53.5676   41.4613 H   0  0  0  0  0  0
   70.6915   53.6080   43.2167 H   0  0  0  0  0  0
   67.8861   57.0329   41.9131 H   0  0  0  0  0  0
   65.8331   55.7130   41.1192 H   0  0  0  0  0  0
   66.3710   54.2862   42.1003 H   0  0  0  0  0  0
   66.2380   55.7042   44.2355 H   0  0  0  0  0  0
   65.7000   57.1310   43.2544 H   0  0  0  0  0  0
   69.4504   55.1241   41.1047 H   0  0  0  0  0  0
  1  2  1  0  0  0
  1  7  2  0  0  0
  1 20  1  0  0  0
  2  3  2  0  0  0
  2 13  1  0  0  0
  3  4  1  0  0  0
  3 10  1  0  0  0
  4  5  1  0  0  0
  4 19  1  0  0  0
  5  6  2  0  0  0
  5  7  1  0  0  0
  7  8  1  0  0  0
  8  9  3  0  0  0
 10 11  1  0  0  0
 10 14  1  0  0  0
 10 22  1  0  0  0
 11 12  1  0  0  0
 11 15  1  0  0  0
 11 16  1  0  0  0
 12 13  1  0  0  0
 12 21  1  0  0  0
 13 17  1  0  0  0
 13 18  1  0  0  0
 22 23  1  0  0  0
 22 24  1  0  0  0
 22 32  1  0  0  0
 23 24  1  0  0  0
 23 33  1  0  0  0
 23 34  1  0  0  0
 24 25  1  0  0  0
 24 35  1  0  0  0
 25 26  1  0  0  0
 25 36  1  0  0  0
 25 37  1  0  0  0
 26 27  1  0  0  0
 26 43  1  0  0  0
 27 28  2  0  0  0
 27 29  1  0  0  0
 29 30  1  0  0  0
 29 31  1  0  0  0
 29 38  1  0  0  0
 30 31  1  0  0  0
 30 39  1  0  0  0
 30 40  1  0  0  0
 31 41  1  0  0  0
 31 42  1  0  0  0
M  END
> <b_m_subgroup_collapsed>
0

> <s_m_subgroup_title>
enumerate_138-out

> <s_m_subgroupid>
enumerate_138-out

$$$$
