29059-4
                    3D
 Schrodinger Suite 2024-3.
 52 55  0  0  1  0            999 V2000
   76.7152   51.2564   42.5117 C   0  0  0  0  0  0
   75.6469   51.8672   41.7091 C   0  0  0  0  0  0
   74.7156   52.5958   42.3599 C   0  0  0  0  0  0
   74.7624   52.7581   43.7471 N   0  0  0  0  0  0
   75.7023   52.2182   44.5484 C   0  0  0  0  0  0
   75.6665   52.3767   45.7684 O   0  0  0  0  0  0
   76.7303   51.4438   43.8559 C   0  0  0  0  0  0
   77.7066   50.8711   44.7216 C   0  0  0  0  0  0
   78.4723   50.4247   45.4646 N   0  0  0  0  0  0
   73.5301   53.2752   41.6754 C   0  0  2  0  0  0
   73.5536   53.2080   40.1403 C   0  0  0  0  0  0
   74.1629   51.9154   39.6394 N   0  0  0  0  0  0
   75.5862   51.7783   40.1806 C   0  0  0  0  0  0
   72.6664   52.6907   41.9933 H   0  0  0  0  0  0
   72.5491   53.3463   39.7375 H   0  0  0  0  0  0
   74.1721   53.9906   39.7152 H   0  0  0  0  0  0
   76.2138   52.5768   39.7810 H   0  0  0  0  0  0
   75.9881   50.8598   39.7711 H   0  0  0  0  0  0
   74.0228   53.3179   44.1572 H   0  0  0  0  0  0
   78.2659   50.0552   41.5379 R   0  0  0  0  0  0
   73.6060   51.1349   39.9569 H   0  0  0  0  0  0
   73.3435   54.6827   42.1592 C   0  0  2  0  0  0
   72.0308   55.2699   41.6145 C   0  0  0  0  0  0
   72.3907   56.6561   41.0743 C   0  0  0  0  0  0
   73.8328   56.4978   40.5963 C   0  0  0  0  0  0
   74.4720   55.5986   41.6572 C   0  0  2  0  0  0
   75.5503   54.8921   41.1647 O   0  0  0  0  0  0
   76.7476   55.1322   41.8075 C   0  0  0  0  0  0
   77.8285   54.3056   41.1764 C   0  0  0  0  0  0
   78.0190   54.6324   39.6933 C   0  0  0  0  0  0
   79.4691   54.2399   39.4171 C   0  0  0  0  0  0
   80.2129   54.6783   40.6809 C   0  0  0  0  0  0
   79.2024   54.5285   41.8303 C   0  0  0  0  0  0
   73.3378   54.6451   43.2503 H   0  0  0  0  0  0
   71.6593   54.6452   40.7994 H   0  0  0  0  0  0
   71.2437   55.3111   42.3696 H   0  0  0  0  0  0
   72.3431   57.3949   41.8772 H   0  0  0  0  0  0
   71.7166   56.9897   40.2833 H   0  0  0  0  0  0
   74.3492   57.4529   40.4848 H   0  0  0  0  0  0
   73.8510   56.0011   39.6238 H   0  0  0  0  0  0
   74.8415   56.2121   42.4817 H   0  0  0  0  0  0
   77.0010   56.1888   41.7209 H   0  0  0  0  0  0
   76.6546   54.8660   42.8604 H   0  0  0  0  0  0
   77.5354   53.2592   41.2853 H   0  0  0  0  0  0
   77.3088   54.1092   39.0505 H   0  0  0  0  0  0
   77.8841   55.7031   39.5253 H   0  0  0  0  0  0
   79.5454   53.1574   39.2940 H   0  0  0  0  0  0
   79.8672   54.7003   38.5111 H   0  0  0  0  0  0
   81.1252   54.1020   40.8458 H   0  0  0  0  0  0
   80.5089   55.7252   40.5861 H   0  0  0  0  0  0
   79.2017   55.4219   42.4579 H   0  0  0  0  0  0
   79.4597   53.6869   42.4764 H   0  0  0  0  0  0
  1  2  1  0  0  0
  1  7  2  0  0  0
  1 20  1  0  0  0
  2  3  2  0  0  0
  2 13  1  0  0  0
  3  4  1  0  0  0
  3 10  1  0  0  0
  4  5  1  0  0  0
  4 19  1  0  0  0
  5  6  2  0  0  0
  5  7  1  0  0  0
  7  8  1  0  0  0
  8  9  3  0  0  0
 10 11  1  0  0  0
 10 14  1  0  0  0
 10 22  1  0  0  0
 11 12  1  0  0  0
 11 15  1  0  0  0
 11 16  1  0  0  0
 12 13  1  0  0  0
 12 21  1  0  0  0
 13 17  1  0  0  0
 13 18  1  0  0  0
 22 23  1  0  0  0
 22 26  1  0  0  0
 22 34  1  0  0  0
 23 24  1  0  0  0
 23 35  1  0  0  0
 23 36  1  0  0  0
 24 25  1  0  0  0
 24 37  1  0  0  0
 24 38  1  0  0  0
 25 26  1  0  0  0
 25 39  1  0  0  0
 25 40  1  0  0  0
 26 27  1  0  0  0
 26 41  1  0  0  0
 27 28  1  0  0  0
 28 29  1  0  0  0
 28 42  1  0  0  0
 28 43  1  0  0  0
 29 30  1  0  0  0
 29 33  1  0  0  0
 29 44  1  0  0  0
 30 31  1  0  0  0
 30 45  1  0  0  0
 30 46  1  0  0  0
 31 32  1  0  0  0
 31 47  1  0  0  0
 31 48  1  0  0  0
 32 33  1  0  0  0
 32 49  1  0  0  0
 32 50  1  0  0  0
 33 51  1  0  0  0
 33 52  1  0  0  0
M  END
> <b_m_subgroup_collapsed>
1

> <s_m_subgroup_title>
enumerate_137-out

> <s_m_subgroupid>
enumerate_137-out

$$$$
