29312-7
                    3D
 Schrodinger Suite 2024-3.
 42 44  0  0  1  0            999 V2000
   76.7152   51.2564   42.5117 C   0  0  0  0  0  0
   75.6469   51.8672   41.7091 C   0  0  0  0  0  0
   74.7156   52.5958   42.3599 C   0  0  0  0  0  0
   74.7624   52.7581   43.7471 N   0  0  0  0  0  0
   75.7023   52.2182   44.5484 C   0  0  0  0  0  0
   75.6665   52.3767   45.7684 O   0  0  0  0  0  0
   76.7303   51.4438   43.8559 C   0  0  0  0  0  0
   77.7066   50.8711   44.7216 C   0  0  0  0  0  0
   78.4723   50.4247   45.4646 N   0  0  0  0  0  0
   73.5301   53.2752   41.6754 C   0  0  2  0  0  0
   73.5536   53.2080   40.1403 C   0  0  0  0  0  0
   74.1629   51.9154   39.6394 N   0  0  0  0  0  0
   75.5862   51.7783   40.1806 C   0  0  0  0  0  0
   72.6664   52.6907   41.9933 H   0  0  0  0  0  0
   72.5491   53.3463   39.7375 H   0  0  0  0  0  0
   74.1721   53.9906   39.7152 H   0  0  0  0  0  0
   76.2138   52.5768   39.7810 H   0  0  0  0  0  0
   75.9881   50.8598   39.7711 H   0  0  0  0  0  0
   74.0228   53.3179   44.1572 H   0  0  0  0  0  0
   78.2659   50.0552   41.5379 R   0  0  0  0  0  0
   73.6060   51.1349   39.9569 H   0  0  0  0  0  0
   73.3435   54.6827   42.1592 C   0  0  2  0  0  0
   71.9896   55.2346   41.6692 C   0  0  0  0  0  0
   71.7949   56.7107   42.0702 C   0  0  2  0  0  0
   70.5084   57.2323   41.5018 C   0  0  0  0  0  0
   72.9730   57.5900   41.6046 C   0  0  0  0  0  0
   74.3269   57.0381   42.0947 C   0  0  2  0  0  0
   75.3592   57.8043   41.5930 O   0  0  0  0  0  0
   74.5216   55.5619   41.6936 C   0  0  0  0  0  0
   73.3400   54.6285   43.2496 H   0  0  0  0  0  0
   71.9323   55.1432   40.5828 H   0  0  0  0  0  0
   71.1732   54.6286   42.0659 H   0  0  0  0  0  0
   71.6956   56.7819   43.1551 H   0  0  0  0  0  0
   70.5471   57.1863   40.4134 H   0  0  0  0  0  0
   69.6789   56.6238   41.8619 H   0  0  0  0  0  0
   70.3645   58.2658   41.8169 H   0  0  0  0  0  0
   72.9765   57.6441   40.5143 H   0  0  0  0  0  0
   72.8372   58.6140   41.9567 H   0  0  0  0  0  0
   74.3842   57.1295   43.1810 H   0  0  0  0  0  0
   75.4575   55.1825   42.1072 H   0  0  0  0  0  0
   74.6208   55.4907   40.6088 H   0  0  0  0  0  0
   75.4312   57.8156   40.5957 H   0  0  0  0  0  0
  1  2  1  0  0  0
  1  7  2  0  0  0
  1 20  1  0  0  0
  2  3  2  0  0  0
  2 13  1  0  0  0
  3  4  1  0  0  0
  3 10  1  0  0  0
  4  5  1  0  0  0
  4 19  1  0  0  0
  5  6  2  0  0  0
  5  7  1  0  0  0
  7  8  1  0  0  0
  8  9  3  0  0  0
 10 11  1  0  0  0
 10 14  1  0  0  0
 10 22  1  0  0  0
 11 12  1  0  0  0
 11 15  1  0  0  0
 11 16  1  0  0  0
 12 13  1  0  0  0
 12 21  1  0  0  0
 13 17  1  0  0  0
 13 18  1  0  0  0
 22 23  1  0  0  0
 22 29  1  0  0  0
 22 30  1  0  0  0
 23 24  1  0  0  0
 23 31  1  0  0  0
 23 32  1  0  0  0
 24 25  1  0  0  0
 24 26  1  0  0  0
 24 33  1  0  0  0
 25 34  1  0  0  0
 25 35  1  0  0  0
 25 36  1  0  0  0
 26 27  1  0  0  0
 26 37  1  0  0  0
 26 38  1  0  0  0
 27 28  1  0  0  0
 27 29  1  0  0  0
 27 39  1  0  0  0
 28 42  1  0  0  0
 29 40  1  0  0  0
 29 41  1  0  0  0
M  END
> <b_m_subgroup_collapsed>
0

> <s_m_subgroup_title>
enumerate_138-out

> <s_m_subgroupid>
enumerate_138-out

$$$$
