15567-1
                    3D
 Schrodinger Suite 2024-3.
 44 46  0  0  1  0            999 V2000
   76.7152   51.2564   42.5117 C   0  0  0  0  0  0
   75.6469   51.8672   41.7091 C   0  0  0  0  0  0
   74.7156   52.5958   42.3599 C   0  0  0  0  0  0
   74.7624   52.7581   43.7471 N   0  0  0  0  0  0
   75.7023   52.2182   44.5484 C   0  0  0  0  0  0
   75.6665   52.3767   45.7684 O   0  0  0  0  0  0
   76.7303   51.4438   43.8559 C   0  0  0  0  0  0
   77.7066   50.8711   44.7216 C   0  0  0  0  0  0
   78.4723   50.4247   45.4646 N   0  0  0  0  0  0
   73.5301   53.2752   41.6754 C   0  0  2  0  0  0
   73.5536   53.2080   40.1403 C   0  0  0  0  0  0
   74.1629   51.9154   39.6394 N   0  0  0  0  0  0
   75.5862   51.7783   40.1806 C   0  0  0  0  0  0
   72.6664   52.6907   41.9933 H   0  0  0  0  0  0
   72.5491   53.3463   39.7375 H   0  0  0  0  0  0
   74.1721   53.9906   39.7152 H   0  0  0  0  0  0
   76.2138   52.5768   39.7810 H   0  0  0  0  0  0
   75.9881   50.8598   39.7711 H   0  0  0  0  0  0
   74.0228   53.3179   44.1572 H   0  0  0  0  0  0
   78.2659   50.0552   41.5379 R   0  0  0  0  0  0
   73.6060   51.1349   39.9569 H   0  0  0  0  0  0
   73.3435   54.6827   42.1592 C   0  0  0  0  0  0
   74.2492   55.4763   42.3974 O   0  0  0  0  0  0
   72.0543   54.9893   42.3073 N   0  0  0  0  0  0
   71.5356   56.2762   42.7616 C   0  0  2  0  0  0
   70.7371   56.0788   44.0159 C   0  0  0  0  0  0
   70.6578   56.8653   41.6975 C   0  0  0  0  0  0
   71.4564   57.0627   40.4432 C   0  0  0  0  0  0
   72.1329   58.2597   40.2146 C   0  0  0  0  0  0
   72.8692   58.4206   39.0411 C   0  0  0  0  0  0
   72.9087   57.3735   38.1229 C   0  0  0  0  0  0
   72.2075   56.2052   38.4184 C   0  0  0  0  0  0
   71.4866   56.0352   39.5573 N   0  0  0  0  0  0
   72.3666   56.9524   42.9625 H   0  0  0  0  0  0
   70.3499   57.0396   44.3551 H   0  0  0  0  0  0
   69.9061   55.4026   43.8150 H   0  0  0  0  0  0
   71.3750   55.6508   44.7892 H   0  0  0  0  0  0
   69.8268   56.1891   41.4965 H   0  0  0  0  0  0
   70.2706   57.8261   42.0366 H   0  0  0  0  0  0
   72.0862   59.0574   40.9434 H   0  0  0  0  0  0
   73.4004   59.3426   38.8471 H   0  0  0  0  0  0
   73.4695   57.4633   37.2025 H   0  0  0  0  0  0
   72.2209   55.3750   37.7223 H   0  0  0  0  0  0
   71.2790   54.3687   42.1233 H   0  0  0  0  0  0
  1  2  1  0  0  0
  1  7  2  0  0  0
  1 20  1  0  0  0
  2  3  2  0  0  0
  2 13  1  0  0  0
  3  4  1  0  0  0
  3 10  1  0  0  0
  4  5  1  0  0  0
  4 19  1  0  0  0
  5  6  2  0  0  0
  5  7  1  0  0  0
  7  8  1  0  0  0
  8  9  3  0  0  0
 10 11  1  0  0  0
 10 14  1  0  0  0
 10 22  1  0  0  0
 11 12  1  0  0  0
 11 15  1  0  0  0
 11 16  1  0  0  0
 12 13  1  0  0  0
 12 21  1  0  0  0
 13 17  1  0  0  0
 13 18  1  0  0  0
 22 23  2  0  0  0
 22 24  1  0  0  0
 24 25  1  0  0  0
 24 44  1  0  0  0
 25 26  1  0  0  0
 25 27  1  0  0  0
 25 34  1  0  0  0
 26 35  1  0  0  0
 26 36  1  0  0  0
 26 37  1  0  0  0
 27 28  1  0  0  0
 27 38  1  0  0  0
 27 39  1  0  0  0
 28 29  2  0  0  0
 28 33  1  0  0  0
 29 30  1  0  0  0
 29 40  1  0  0  0
 30 31  2  0  0  0
 30 41  1  0  0  0
 31 32  1  0  0  0
 31 42  1  0  0  0
 32 33  2  0  0  0
 32 43  1  0  0  0
M  END
> <b_m_subgroup_collapsed>
0

> <s_m_subgroup_title>
enumerate_138-out

> <s_m_subgroupid>
enumerate_138-out

$$$$
