11937-1
                    3D
 Schrodinger Suite 2024-3.
 43 47  0  0  1  0            999 V2000
   76.7152   51.2564   42.5117 C   0  0  0  0  0  0
   75.6469   51.8672   41.7091 C   0  0  0  0  0  0
   74.7156   52.5958   42.3599 C   0  0  0  0  0  0
   74.7624   52.7581   43.7471 N   0  0  0  0  0  0
   75.7023   52.2182   44.5484 C   0  0  0  0  0  0
   75.6665   52.3767   45.7684 O   0  0  0  0  0  0
   76.7303   51.4438   43.8559 C   0  0  0  0  0  0
   77.7066   50.8711   44.7216 C   0  0  0  0  0  0
   78.4723   50.4247   45.4646 N   0  0  0  0  0  0
   73.5301   53.2752   41.6754 C   0  0  2  0  0  0
   73.5536   53.2080   40.1403 C   0  0  0  0  0  0
   74.1629   51.9154   39.6394 N   0  0  0  0  0  0
   75.5862   51.7783   40.1806 C   0  0  0  0  0  0
   72.6664   52.6907   41.9933 H   0  0  0  0  0  0
   72.5491   53.3463   39.7375 H   0  0  0  0  0  0
   74.1721   53.9906   39.7152 H   0  0  0  0  0  0
   76.2138   52.5768   39.7810 H   0  0  0  0  0  0
   75.9881   50.8598   39.7711 H   0  0  0  0  0  0
   74.0228   53.3179   44.1572 H   0  0  0  0  0  0
   78.2659   50.0552   41.5379 R   0  0  0  0  0  0
   73.6060   51.1349   39.9569 H   0  0  0  0  0  0
   73.3435   54.6827   42.1592 C   0  0  1  0  0  0
   72.0406   54.8367   43.0270 C   0  0  0  0  0  0
   71.8761   56.3223   43.5171 C   0  0  1  0  0  0
   73.1498   56.7847   44.2419 C   0  0  0  0  0  0
   74.1831   56.6955   43.0978 C   0  0  1  0  0  0
   74.5616   55.2073   42.9355 C   0  0  0  0  0  0
   73.3626   57.0306   41.8066 C   0  0  2  0  0  0
   71.9282   57.2836   42.3193 C   0  0  0  0  0  0
   73.3400   55.7062   41.0129 C   0  0  0  0  0  0
   71.1672   54.5360   42.4462 H   0  0  0  0  0  0
   72.0810   54.1628   43.8843 H   0  0  0  0  0  0
   70.9771   56.4540   44.1225 H   0  0  0  0  0  0
   73.3971   56.1618   45.1036 H   0  0  0  0  0  0
   73.0529   57.8087   44.6102 H   0  0  0  0  0  0
   75.0508   57.3382   43.2595 H   0  0  0  0  0  0
   74.7149   54.6893   43.8842 H   0  0  0  0  0  0
   75.4837   55.0927   42.3609 H   0  0  0  0  0  0
   73.7585   57.8660   41.2256 H   0  0  0  0  0  0
   71.7958   58.3220   42.6318 H   0  0  0  0  0  0
   71.1556   57.0771   41.5761 H   0  0  0  0  0  0
   74.2266   55.6060   40.3825 H   0  0  0  0  0  0
   72.4734   55.6047   40.3567 H   0  0  0  0  0  0
  1  2  1  0  0  0
  1  7  2  0  0  0
  1 20  1  0  0  0
  2  3  2  0  0  0
  2 13  1  0  0  0
  3  4  1  0  0  0
  3 10  1  0  0  0
  4  5  1  0  0  0
  4 19  1  0  0  0
  5  6  2  0  0  0
  5  7  1  0  0  0
  7  8  1  0  0  0
  8  9  3  0  0  0
 10 11  1  0  0  0
 10 14  1  0  0  0
 10 22  1  0  0  0
 11 12  1  0  0  0
 11 15  1  0  0  0
 11 16  1  0  0  0
 12 13  1  0  0  0
 12 21  1  0  0  0
 13 17  1  0  0  0
 13 18  1  0  0  0
 22 23  1  0  0  0
 22 27  1  0  0  0
 22 30  1  0  0  0
 23 24  1  0  0  0
 23 31  1  0  0  0
 23 32  1  0  0  0
 24 25  1  0  0  0
 24 29  1  0  0  0
 24 33  1  0  0  0
 25 26  1  0  0  0
 25 34  1  0  0  0
 25 35  1  0  0  0
 26 27  1  0  0  0
 26 28  1  0  0  0
 26 36  1  0  0  0
 27 37  1  0  0  0
 27 38  1  0  0  0
 28 29  1  0  0  0
 28 30  1  0  0  0
 28 39  1  0  0  0
 29 40  1  0  0  0
 29 41  1  0  0  0
 30 42  1  0  0  0
 30 43  1  0  0  0
M  END
> <b_m_subgroup_collapsed>
1

> <s_m_subgroup_title>
enumerate_137-out

> <s_m_subgroupid>
enumerate_137-out

$$$$
