24810-2
                    3D
 Schrodinger Suite 2024-3.
 48 50  0  0  1  0            999 V2000
   76.7152   51.2564   42.5117 C   0  0  0  0  0  0
   75.6469   51.8672   41.7091 C   0  0  0  0  0  0
   74.7156   52.5958   42.3599 C   0  0  0  0  0  0
   74.7624   52.7581   43.7471 N   0  0  0  0  0  0
   75.7023   52.2182   44.5484 C   0  0  0  0  0  0
   75.6665   52.3767   45.7684 O   0  0  0  0  0  0
   76.7303   51.4438   43.8559 C   0  0  0  0  0  0
   77.7066   50.8711   44.7216 C   0  0  0  0  0  0
   78.4723   50.4247   45.4646 N   0  0  0  0  0  0
   73.5301   53.2752   41.6754 C   0  0  2  0  0  0
   73.5536   53.2080   40.1403 C   0  0  0  0  0  0
   74.1629   51.9154   39.6394 N   0  0  0  0  0  0
   75.5862   51.7783   40.1806 C   0  0  0  0  0  0
   72.6664   52.6907   41.9933 H   0  0  0  0  0  0
   72.5491   53.3463   39.7375 H   0  0  0  0  0  0
   74.1721   53.9906   39.7152 H   0  0  0  0  0  0
   76.2138   52.5768   39.7810 H   0  0  0  0  0  0
   75.9881   50.8598   39.7711 H   0  0  0  0  0  0
   74.0228   53.3179   44.1572 H   0  0  0  0  0  0
   78.2659   50.0552   41.5379 R   0  0  0  0  0  0
   73.6060   51.1349   39.9569 H   0  0  0  0  0  0
   73.3485   54.6452   42.1463 N   0  0  0  0  0  0
   72.1756   55.2325   42.3857 C   0  0  0  0  0  0
   71.1000   54.6622   42.2290 O   0  0  0  0  0  0
   72.3458   56.6456   42.8592 C   0  0  1  0  0  0
   71.6708   57.6060   41.8593 C   0  0  0  0  0  0
   70.1374   57.4435   41.8566 C   0  0  0  0  0  0
   69.5450   57.5841   43.2733 C   0  0  0  0  0  0
   70.2200   56.6237   44.2733 C   0  0  0  0  0  0
   71.7535   56.7862   44.2759 C   0  0  0  0  0  0
   72.3755   55.7774   45.1954 C   0  0  0  0  0  0
   72.1112   58.1315   44.8346 C   0  0  0  0  0  0
   73.4216   56.8274   42.8841 H   0  0  0  0  0  0
   71.9261   58.6358   42.1165 H   0  0  0  0  0  0
   72.0662   57.4393   40.8558 H   0  0  0  0  0  0
   69.6848   58.1775   41.1876 H   0  0  0  0  0  0
   69.8770   56.4644   41.4500 H   0  0  0  0  0  0
   69.6689   58.6125   43.6180 H   0  0  0  0  0  0
   68.4692   57.4023   43.2485 H   0  0  0  0  0  0
   69.9648   55.5939   44.0160 H   0  0  0  0  0  0
   69.8247   56.7904   45.2767 H   0  0  0  0  0  0
   71.9505   55.8848   46.1934 H   0  0  0  0  0  0
   72.1757   54.7732   44.8215 H   0  0  0  0  0  0
   73.4522   55.9412   45.2394 H   0  0  0  0  0  0
   71.6929   58.2320   45.8361 H   0  0  0  0  0  0
   73.1959   58.2283   44.8824 H   0  0  0  0  0  0
   71.7048   58.9119   44.1912 H   0  0  0  0  0  0
   74.2546   55.0762   42.2615 H   0  0  0  0  0  0
  1  2  1  0  0  0
  1  7  2  0  0  0
  1 20  1  0  0  0
  2  3  2  0  0  0
  2 13  1  0  0  0
  3  4  1  0  0  0
  3 10  1  0  0  0
  4  5  1  0  0  0
  4 19  1  0  0  0
  5  6  2  0  0  0
  5  7  1  0  0  0
  7  8  1  0  0  0
  8  9  3  0  0  0
 10 11  1  0  0  0
 10 14  1  0  0  0
 10 22  1  0  0  0
 11 12  1  0  0  0
 11 15  1  0  0  0
 11 16  1  0  0  0
 12 13  1  0  0  0
 12 21  1  0  0  0
 13 17  1  0  0  0
 13 18  1  0  0  0
 22 23  1  0  0  0
 22 48  1  0  0  0
 23 24  2  0  0  0
 23 25  1  0  0  0
 25 26  1  0  0  0
 25 30  1  0  0  0
 25 33  1  0  0  0
 26 27  1  0  0  0
 26 34  1  0  0  0
 26 35  1  0  0  0
 27 28  1  0  0  0
 27 36  1  0  0  0
 27 37  1  0  0  0
 28 29  1  0  0  0
 28 38  1  0  0  0
 28 39  1  0  0  0
 29 30  1  0  0  0
 29 40  1  0  0  0
 29 41  1  0  0  0
 30 31  1  0  0  0
 30 32  1  0  0  0
 31 42  1  0  0  0
 31 43  1  0  0  0
 31 44  1  0  0  0
 32 45  1  0  0  0
 32 46  1  0  0  0
 32 47  1  0  0  0
M  END
> <b_m_subgroup_collapsed>
1

> <s_m_subgroup_title>
enumerate_137-out

> <s_m_subgroupid>
enumerate_137-out

$$$$
