5444-1
                    3D
 Schrodinger Suite 2024-3.
 41 42  0  0  1  0            999 V2000
   76.7152   51.2564   42.5117 C   0  0  0  0  0  0
   75.6469   51.8672   41.7091 C   0  0  0  0  0  0
   74.7156   52.5958   42.3599 C   0  0  0  0  0  0
   74.7624   52.7581   43.7471 N   0  0  0  0  0  0
   75.7023   52.2182   44.5484 C   0  0  0  0  0  0
   75.6665   52.3767   45.7684 O   0  0  0  0  0  0
   76.7303   51.4438   43.8559 C   0  0  0  0  0  0
   77.7066   50.8711   44.7216 C   0  0  0  0  0  0
   78.4723   50.4247   45.4646 N   0  0  0  0  0  0
   73.5301   53.2752   41.6754 C   0  0  2  0  0  0
   73.5536   53.2080   40.1403 C   0  0  0  0  0  0
   74.1629   51.9154   39.6394 N   0  0  0  0  0  0
   75.5862   51.7783   40.1806 C   0  0  0  0  0  0
   72.6664   52.6907   41.9933 H   0  0  0  0  0  0
   72.5491   53.3463   39.7375 H   0  0  0  0  0  0
   74.1721   53.9906   39.7152 H   0  0  0  0  0  0
   76.2138   52.5768   39.7810 H   0  0  0  0  0  0
   75.9881   50.8598   39.7711 H   0  0  0  0  0  0
   74.0228   53.3179   44.1572 H   0  0  0  0  0  0
   78.2659   50.0552   41.5379 R   0  0  0  0  0  0
   73.6060   51.1349   39.9569 H   0  0  0  0  0  0
   73.1558   57.4330   40.0213 C   0  0  0  0  0  0
   73.2368   57.6292   41.5062 C   0  0  0  0  0  0
   74.4390   56.9089   42.0408 C   0  0  1  0  0  0
   74.5200   57.1051   43.5257 C   0  0  0  0  0  0
   74.3248   55.4841   41.7437 N   0  0  0  0  0  0
   75.4585   55.0783   40.9180 C   0  0  0  0  0  0
   73.3435   54.6827   42.1592 C   0  0  0  0  0  0
   72.4108   55.0756   42.8538 O   0  0  0  0  0  0
   72.2821   57.9564   39.6328 H   0  0  0  0  0  0
   74.0558   57.8309   39.5526 H   0  0  0  0  0  0
   73.0705   56.3692   39.7994 H   0  0  0  0  0  0
   72.3367   57.2313   41.9748 H   0  0  0  0  0  0
   73.3221   58.6929   41.7280 H   0  0  0  0  0  0
   75.3391   57.3068   41.5721 H   0  0  0  0  0  0
   74.6053   58.1689   43.7476 H   0  0  0  0  0  0
   73.6199   56.7072   43.9944 H   0  0  0  0  0  0
   75.3937   56.5817   43.9142 H   0  0  0  0  0  0
   75.3808   54.0149   40.6914 H   0  0  0  0  0  0
   75.4542   55.6489   39.9893 H   0  0  0  0  0  0
   76.3867   55.2681   41.4569 H   0  0  0  0  0  0
  1  2  1  0  0  0
  1  7  2  0  0  0
  1 20  1  0  0  0
  2  3  2  0  0  0
  2 13  1  0  0  0
  3  4  1  0  0  0
  3 10  1  0  0  0
  4  5  1  0  0  0
  4 19  1  0  0  0
  5  6  2  0  0  0
  5  7  1  0  0  0
  7  8  1  0  0  0
  8  9  3  0  0  0
 10 11  1  0  0  0
 10 14  1  0  0  0
 10 28  1  0  0  0
 11 12  1  0  0  0
 11 15  1  0  0  0
 11 16  1  0  0  0
 12 13  1  0  0  0
 12 21  1  0  0  0
 13 17  1  0  0  0
 13 18  1  0  0  0
 22 23  1  0  0  0
 22 30  1  0  0  0
 22 31  1  0  0  0
 22 32  1  0  0  0
 23 24  1  0  0  0
 23 33  1  0  0  0
 23 34  1  0  0  0
 24 25  1  0  0  0
 24 26  1  0  0  0
 24 35  1  0  0  0
 25 36  1  0  0  0
 25 37  1  0  0  0
 25 38  1  0  0  0
 26 27  1  0  0  0
 26 28  1  0  0  0
 27 39  1  0  0  0
 27 40  1  0  0  0
 27 41  1  0  0  0
 28 29  2  0  0  0
M  END
> <b_m_subgroup_collapsed>
1

> <s_m_subgroup_title>
enumerate_137-out

> <s_m_subgroupid>
enumerate_137-out

$$$$
