26623-1
                    3D
 Schrodinger Suite 2024-3.
 41 42  0  0  1  0            999 V2000
   76.7152   51.2564   42.5117 C   0  0  0  0  0  0
   75.6469   51.8672   41.7091 C   0  0  0  0  0  0
   74.7156   52.5958   42.3599 C   0  0  0  0  0  0
   74.7624   52.7581   43.7471 N   0  0  0  0  0  0
   75.7023   52.2182   44.5484 C   0  0  0  0  0  0
   75.6665   52.3767   45.7684 O   0  0  0  0  0  0
   76.7303   51.4438   43.8559 C   0  0  0  0  0  0
   77.7066   50.8711   44.7216 C   0  0  0  0  0  0
   78.4723   50.4247   45.4646 N   0  0  0  0  0  0
   73.5301   53.2752   41.6754 C   0  0  2  0  0  0
   73.5536   53.2080   40.1403 C   0  0  0  0  0  0
   74.1629   51.9154   39.6394 N   0  0  0  0  0  0
   75.5862   51.7783   40.1806 C   0  0  0  0  0  0
   72.6664   52.6907   41.9933 H   0  0  0  0  0  0
   72.5491   53.3463   39.7375 H   0  0  0  0  0  0
   74.1721   53.9906   39.7152 H   0  0  0  0  0  0
   76.2138   52.5768   39.7810 H   0  0  0  0  0  0
   75.9881   50.8598   39.7711 H   0  0  0  0  0  0
   74.0228   53.3179   44.1572 H   0  0  0  0  0  0
   78.2659   50.0552   41.5379 R   0  0  0  0  0  0
   73.6060   51.1349   39.9569 H   0  0  0  0  0  0
   73.3435   54.6827   42.1592 C   0  0  1  0  0  0
   73.2355   55.6059   40.9820 C   0  0  0  0  0  0
   72.1899   54.7610   42.9126 O   0  0  0  0  0  0
   72.1675   53.9525   44.0307 C   0  0  0  0  0  0
   72.5693   52.5362   43.5840 C   0  0  0  0  0  0
   70.7350   53.9797   44.5910 C   0  0  0  0  0  0
   73.1759   54.5309   45.0385 C   0  0  0  0  0  0
   74.1975   54.9728   42.7713 H   0  0  0  0  0  0
   74.1467   55.5441   40.3869 H   0  0  0  0  0  0
   72.3815   55.3159   40.3699 H   0  0  0  0  0  0
   73.0999   56.6287   41.3335 H   0  0  0  0  0  0
   72.5730   51.8389   44.4228 H   0  0  0  0  0  0
   73.5667   52.5288   43.1431 H   0  0  0  0  0  0
   71.8796   52.1477   42.8338 H   0  0  0  0  0  0
   70.4355   54.9928   44.8620 H   0  0  0  0  0  0
   70.0162   53.6140   43.8567 H   0  0  0  0  0  0
   70.6429   53.3577   45.4824 H   0  0  0  0  0  0
   72.9151   55.5528   45.3165 H   0  0  0  0  0  0
   73.2113   53.9378   45.9532 H   0  0  0  0  0  0
   74.1829   54.5550   44.6205 H   0  0  0  0  0  0
  1  2  1  0  0  0
  1  7  2  0  0  0
  1 20  1  0  0  0
  2  3  2  0  0  0
  2 13  1  0  0  0
  3  4  1  0  0  0
  3 10  1  0  0  0
  4  5  1  0  0  0
  4 19  1  0  0  0
  5  6  2  0  0  0
  5  7  1  0  0  0
  7  8  1  0  0  0
  8  9  3  0  0  0
 10 11  1  0  0  0
 10 14  1  0  0  0
 10 22  1  0  0  0
 11 12  1  0  0  0
 11 15  1  0  0  0
 11 16  1  0  0  0
 12 13  1  0  0  0
 12 21  1  0  0  0
 13 17  1  0  0  0
 13 18  1  0  0  0
 22 23  1  0  0  0
 22 24  1  0  0  0
 22 29  1  0  0  0
 23 30  1  0  0  0
 23 31  1  0  0  0
 23 32  1  0  0  0
 24 25  1  0  0  0
 25 26  1  0  0  0
 25 27  1  0  0  0
 25 28  1  0  0  0
 26 33  1  0  0  0
 26 34  1  0  0  0
 26 35  1  0  0  0
 27 36  1  0  0  0
 27 37  1  0  0  0
 27 38  1  0  0  0
 28 39  1  0  0  0
 28 40  1  0  0  0
 28 41  1  0  0  0
M  END
> <b_m_subgroup_collapsed>
0

> <s_m_subgroup_title>
enumerate_138-out

> <s_m_subgroupid>
enumerate_138-out

$$$$
