34970-1
                    3D
 Schrodinger Suite 2024-3.
 42 44  0  0  1  0            999 V2000
   76.7152   51.2564   42.5117 C   0  0  0  0  0  0
   75.6469   51.8672   41.7091 C   0  0  0  0  0  0
   74.7156   52.5958   42.3599 C   0  0  0  0  0  0
   74.7624   52.7581   43.7471 N   0  0  0  0  0  0
   75.7023   52.2182   44.5484 C   0  0  0  0  0  0
   75.6665   52.3767   45.7684 O   0  0  0  0  0  0
   76.7303   51.4438   43.8559 C   0  0  0  0  0  0
   77.7066   50.8711   44.7216 C   0  0  0  0  0  0
   78.4723   50.4247   45.4646 N   0  0  0  0  0  0
   73.5301   53.2752   41.6754 C   0  0  2  0  0  0
   73.5536   53.2080   40.1403 C   0  0  0  0  0  0
   74.1629   51.9154   39.6394 N   0  0  0  0  0  0
   75.5862   51.7783   40.1806 C   0  0  0  0  0  0
   72.6664   52.6907   41.9933 H   0  0  0  0  0  0
   72.5491   53.3463   39.7375 H   0  0  0  0  0  0
   74.1721   53.9906   39.7152 H   0  0  0  0  0  0
   76.2138   52.5768   39.7810 H   0  0  0  0  0  0
   75.9881   50.8598   39.7711 H   0  0  0  0  0  0
   74.0228   53.3179   44.1572 H   0  0  0  0  0  0
   78.2659   50.0552   41.5379 R   0  0  0  0  0  0
   73.6060   51.1349   39.9569 H   0  0  0  0  0  0
   73.3435   54.6827   42.1592 C   0  0  1  0  0  0
   73.2453   55.5341   40.9282 C   0  0  0  0  0  0
   72.0339   54.7948   42.9656 C   0  0  0  0  0  0
   71.8457   56.2064   43.5572 C   0  0  0  0  0  0
   73.0682   56.6458   44.3880 C   0  0  1  0  0  0
   73.1585   55.8626   45.5206 O   0  0  0  0  0  0
   74.3778   56.5337   43.5816 C   0  0  0  0  0  0
   74.5660   55.1222   42.9900 C   0  0  0  0  0  0
   73.1078   56.5761   41.2170 H   0  0  0  0  0  0
   74.1610   55.4365   40.3449 H   0  0  0  0  0  0
   72.3958   55.2083   40.3279 H   0  0  0  0  0  0
   71.1823   54.5379   42.3332 H   0  0  0  0  0  0
   72.0414   54.0608   43.7737 H   0  0  0  0  0  0
   70.9450   56.2367   44.1726 H   0  0  0  0  0  0
   71.6817   56.9201   42.7476 H   0  0  0  0  0  0
   72.9324   57.6698   44.7400 H   0  0  0  0  0  0
   75.2293   56.7906   44.2140 H   0  0  0  0  0  0
   74.3702   57.2677   42.7736 H   0  0  0  0  0  0
   74.7300   54.4084   43.7996 H   0  0  0  0  0  0
   75.4667   55.0918   42.3746 H   0  0  0  0  0  0
   73.0859   56.3598   46.3852 H   0  0  0  0  0  0
  1  2  1  0  0  0
  1  7  2  0  0  0
  1 20  1  0  0  0
  2  3  2  0  0  0
  2 13  1  0  0  0
  3  4  1  0  0  0
  3 10  1  0  0  0
  4  5  1  0  0  0
  4 19  1  0  0  0
  5  6  2  0  0  0
  5  7  1  0  0  0
  7  8  1  0  0  0
  8  9  3  0  0  0
 10 11  1  0  0  0
 10 14  1  0  0  0
 10 22  1  0  0  0
 11 12  1  0  0  0
 11 15  1  0  0  0
 11 16  1  0  0  0
 12 13  1  0  0  0
 12 21  1  0  0  0
 13 17  1  0  0  0
 13 18  1  0  0  0
 22 23  1  0  0  0
 22 24  1  0  0  0
 22 29  1  0  0  0
 23 30  1  0  0  0
 23 31  1  0  0  0
 23 32  1  0  0  0
 24 25  1  0  0  0
 24 33  1  0  0  0
 24 34  1  0  0  0
 25 26  1  0  0  0
 25 35  1  0  0  0
 25 36  1  0  0  0
 26 27  1  0  0  0
 26 28  1  0  0  0
 26 37  1  0  0  0
 27 42  1  0  0  0
 28 29  1  0  0  0
 28 38  1  0  0  0
 28 39  1  0  0  0
 29 40  1  0  0  0
 29 41  1  0  0  0
M  END
> <b_m_subgroup_collapsed>
1

> <s_m_subgroup_title>
enumerate_137-out

> <s_m_subgroupid>
enumerate_137-out

$$$$
