28898-1
                    3D
 Schrodinger Suite 2024-3.
 42 45  0  0  1  0            999 V2000
   76.7152   51.2564   42.5117 C   0  0  0  0  0  0
   75.6469   51.8672   41.7091 C   0  0  0  0  0  0
   74.7156   52.5958   42.3599 C   0  0  0  0  0  0
   74.7624   52.7581   43.7471 N   0  0  0  0  0  0
   75.7023   52.2182   44.5484 C   0  0  0  0  0  0
   75.6665   52.3767   45.7684 O   0  0  0  0  0  0
   76.7303   51.4438   43.8559 C   0  0  0  0  0  0
   77.7066   50.8711   44.7216 C   0  0  0  0  0  0
   78.4723   50.4247   45.4646 N   0  0  0  0  0  0
   73.5301   53.2752   41.6754 C   0  0  2  0  0  0
   73.5536   53.2080   40.1403 C   0  0  0  0  0  0
   74.1629   51.9154   39.6394 N   0  0  0  0  0  0
   75.5862   51.7783   40.1806 C   0  0  0  0  0  0
   72.6664   52.6907   41.9933 H   0  0  0  0  0  0
   72.5491   53.3463   39.7375 H   0  0  0  0  0  0
   74.1721   53.9906   39.7152 H   0  0  0  0  0  0
   76.2138   52.5768   39.7810 H   0  0  0  0  0  0
   75.9881   50.8598   39.7711 H   0  0  0  0  0  0
   74.0228   53.3179   44.1572 H   0  0  0  0  0  0
   78.2659   50.0552   41.5379 R   0  0  0  0  0  0
   73.6060   51.1349   39.9569 H   0  0  0  0  0  0
   73.3435   54.6827   42.1592 C   0  0  1  0  0  0
   72.0784   54.8810   43.0145 C   0  0  0  0  0  0
   71.8530   56.4035   42.9397 C   0  0  0  0  0  0
   73.0187   56.8760   42.0515 C   0  0  1  0  0  0
   72.7973   58.2242   41.4323 C   0  0  0  0  0  0
   72.6389   59.1226   42.4029 F   0  0  0  0  0  0
   74.3357   56.7663   42.8420 C   0  0  0  0  0  0
   74.5610   55.2437   42.9170 C   0  0  0  0  0  0
   73.1484   55.7233   41.0625 C   0  0  0  0  0  0
   71.2303   54.3459   42.5849 H   0  0  0  0  0  0
   72.2107   54.5286   44.0383 H   0  0  0  0  0  0
   70.8927   56.6267   42.4728 H   0  0  0  0  0  0
   71.8631   56.8755   43.9230 H   0  0  0  0  0  0
   73.6607   58.5057   40.8295 H   0  0  0  0  0  0
   71.8986   58.2100   40.8157 H   0  0  0  0  0  0
   74.2669   57.2270   43.8282 H   0  0  0  0  0  0
   75.1532   57.2491   42.3048 H   0  0  0  0  0  0
   74.6138   54.8799   43.9439 H   0  0  0  0  0  0
   75.4909   54.9683   42.4175 H   0  0  0  0  0  0
   74.0080   55.8179   40.3963 H   0  0  0  0  0  0
   72.2492   55.5608   40.4652 H   0  0  0  0  0  0
  1  2  1  0  0  0
  1  7  2  0  0  0
  1 20  1  0  0  0
  2  3  2  0  0  0
  2 13  1  0  0  0
  3  4  1  0  0  0
  3 10  1  0  0  0
  4  5  1  0  0  0
  4 19  1  0  0  0
  5  6  2  0  0  0
  5  7  1  0  0  0
  7  8  1  0  0  0
  8  9  3  0  0  0
 10 11  1  0  0  0
 10 14  1  0  0  0
 10 22  1  0  0  0
 11 12  1  0  0  0
 11 15  1  0  0  0
 11 16  1  0  0  0
 12 13  1  0  0  0
 12 21  1  0  0  0
 13 17  1  0  0  0
 13 18  1  0  0  0
 22 23  1  0  0  0
 22 29  1  0  0  0
 22 30  1  0  0  0
 23 24  1  0  0  0
 23 31  1  0  0  0
 23 32  1  0  0  0
 24 25  1  0  0  0
 24 33  1  0  0  0
 24 34  1  0  0  0
 25 26  1  0  0  0
 25 28  1  0  0  0
 25 30  1  0  0  0
 26 27  1  0  0  0
 26 35  1  0  0  0
 26 36  1  0  0  0
 28 29  1  0  0  0
 28 37  1  0  0  0
 28 38  1  0  0  0
 29 39  1  0  0  0
 29 40  1  0  0  0
 30 41  1  0  0  0
 30 42  1  0  0  0
M  END
> <b_m_subgroup_collapsed>
1

> <s_m_subgroup_title>
enumerate_137-out

> <s_m_subgroupid>
enumerate_137-out

$$$$
