3032-1
                    3D
 Schrodinger Suite 2024-3.
 44 46  0  0  1  0            999 V2000
   76.7152   51.2564   42.5117 C   0  0  0  0  0  0
   75.6469   51.8672   41.7091 C   0  0  0  0  0  0
   74.7156   52.5958   42.3599 C   0  0  0  0  0  0
   74.7624   52.7581   43.7471 N   0  0  0  0  0  0
   75.7023   52.2182   44.5484 C   0  0  0  0  0  0
   75.6665   52.3767   45.7684 O   0  0  0  0  0  0
   76.7303   51.4438   43.8559 C   0  0  0  0  0  0
   77.7066   50.8711   44.7216 C   0  0  0  0  0  0
   78.4723   50.4247   45.4646 N   0  0  0  0  0  0
   73.5301   53.2752   41.6754 C   0  0  2  0  0  0
   73.5536   53.2080   40.1403 C   0  0  0  0  0  0
   74.1629   51.9154   39.6394 N   0  0  0  0  0  0
   75.5862   51.7783   40.1806 C   0  0  0  0  0  0
   72.6664   52.6907   41.9933 H   0  0  0  0  0  0
   72.5491   53.3463   39.7375 H   0  0  0  0  0  0
   74.1721   53.9906   39.7152 H   0  0  0  0  0  0
   76.2138   52.5768   39.7810 H   0  0  0  0  0  0
   75.9881   50.8598   39.7711 H   0  0  0  0  0  0
   74.0228   53.3179   44.1572 H   0  0  0  0  0  0
   78.2659   50.0552   41.5379 R   0  0  0  0  0  0
   73.6060   51.1349   39.9569 H   0  0  0  0  0  0
   73.3435   54.6827   42.1592 C   0  0  0  0  0  0
   74.5479   55.5135   41.6586 C   0  0  0  0  0  0
   75.1254   56.5338   42.6647 C   0  0  0  0  0  0
   74.1182   57.3827   43.4684 C   0  0  0  0  0  0
   73.2341   58.3604   42.6662 C   0  0  0  0  0  0
   72.2337   57.7485   41.6604 C   0  0  0  0  0  0
   71.4458   56.5155   42.1608 C   0  0  0  0  0  0
   71.9642   55.1539   41.6444 C   0  0  0  0  0  0
   73.3435   54.6012   43.2470 H   0  0  0  0  0  0
   75.3565   54.8280   41.3977 H   0  0  0  0  0  0
   74.3080   56.0029   40.7150 H   0  0  0  0  0  0
   75.7344   55.9841   43.3848 H   0  0  0  0  0  0
   75.8240   57.1916   42.1447 H   0  0  0  0  0  0
   73.4956   56.7375   44.0880 H   0  0  0  0  0  0
   74.6894   57.9735   44.1869 H   0  0  0  0  0  0
   72.6641   58.9493   43.3873 H   0  0  0  0  0  0
   73.8668   59.0818   42.1463 H   0  0  0  0  0  0
   71.5203   58.5330   41.4008 H   0  0  0  0  0  0
   72.7304   57.5266   40.7163 H   0  0  0  0  0  0
   71.3652   56.5118   43.2486 H   0  0  0  0  0  0
   70.4170   56.6159   41.8096 H   0  0  0  0  0  0
   71.9670   55.1576   40.5528 H   0  0  0  0  0  0
   71.2309   54.3944   41.9219 H   0  0  0  0  0  0
  1  2  1  0  0  0
  1  7  2  0  0  0
  1 20  1  0  0  0
  2  3  2  0  0  0
  2 13  1  0  0  0
  3  4  1  0  0  0
  3 10  1  0  0  0
  4  5  1  0  0  0
  4 19  1  0  0  0
  5  6  2  0  0  0
  5  7  1  0  0  0
  7  8  1  0  0  0
  8  9  3  0  0  0
 10 11  1  0  0  0
 10 14  1  0  0  0
 10 22  1  0  0  0
 11 12  1  0  0  0
 11 15  1  0  0  0
 11 16  1  0  0  0
 12 13  1  0  0  0
 12 21  1  0  0  0
 13 17  1  0  0  0
 13 18  1  0  0  0
 22 23  1  0  0  0
 22 29  1  0  0  0
 22 30  1  0  0  0
 23 24  1  0  0  0
 23 31  1  0  0  0
 23 32  1  0  0  0
 24 25  1  0  0  0
 24 33  1  0  0  0
 24 34  1  0  0  0
 25 26  1  0  0  0
 25 35  1  0  0  0
 25 36  1  0  0  0
 26 27  1  0  0  0
 26 37  1  0  0  0
 26 38  1  0  0  0
 27 28  1  0  0  0
 27 39  1  0  0  0
 27 40  1  0  0  0
 28 29  1  0  0  0
 28 41  1  0  0  0
 28 42  1  0  0  0
 29 43  1  0  0  0
 29 44  1  0  0  0
M  END
> <b_m_subgroup_collapsed>
0

> <s_m_subgroup_title>
enumerate_138-out

> <s_m_subgroupid>
enumerate_138-out

$$$$
