20312-1
                    3D
 Schrodinger Suite 2024-3.
 45 47  0  0  1  0            999 V2000
   76.7152   51.2564   42.5117 C   0  0  0  0  0  0
   75.6469   51.8672   41.7091 C   0  0  0  0  0  0
   74.7156   52.5958   42.3599 C   0  0  0  0  0  0
   74.7624   52.7581   43.7471 N   0  0  0  0  0  0
   75.7023   52.2182   44.5484 C   0  0  0  0  0  0
   75.6665   52.3767   45.7684 O   0  0  0  0  0  0
   76.7303   51.4438   43.8559 C   0  0  0  0  0  0
   77.7066   50.8711   44.7216 C   0  0  0  0  0  0
   78.4723   50.4247   45.4646 N   0  0  0  0  0  0
   73.5301   53.2752   41.6754 C   0  0  2  0  0  0
   73.5536   53.2080   40.1403 C   0  0  0  0  0  0
   74.1629   51.9154   39.6394 N   0  0  0  0  0  0
   75.5862   51.7783   40.1806 C   0  0  0  0  0  0
   72.6664   52.6907   41.9933 H   0  0  0  0  0  0
   72.5491   53.3463   39.7375 H   0  0  0  0  0  0
   74.1721   53.9906   39.7152 H   0  0  0  0  0  0
   76.2138   52.5768   39.7810 H   0  0  0  0  0  0
   75.9881   50.8598   39.7711 H   0  0  0  0  0  0
   74.0228   53.3179   44.1572 H   0  0  0  0  0  0
   78.2659   50.0552   41.5379 R   0  0  0  0  0  0
   73.6060   51.1349   39.9569 H   0  0  0  0  0  0
   73.3435   54.6827   42.1592 C   0  0  0  0  0  0
   72.0438   55.2219   41.6395 C   0  0  0  0  0  0
   72.1435   55.1721   40.1437 C   0  0  0  0  0  0
   72.0089   56.4462   39.6310 O   0  0  0  0  0  0
   70.8869   54.3238   42.1220 C   0  0  0  0  0  0
   70.6919   54.4136   43.6490 C   0  0  0  0  0  0
   70.5178   55.8720   44.1185 C   0  0  0  0  0  0
   71.6747   56.7700   43.6360 C   0  0  0  0  0  0
   71.8697   56.6803   42.1090 C   0  0  0  0  0  0
   73.3315   54.6937   43.2491 H   0  0  0  0  0  0
   74.1642   55.3027   41.7986 H   0  0  0  0  0  0
   73.1137   54.7659   39.8575 H   0  0  0  0  0  0
   71.3521   54.5357   39.7478 H   0  0  0  0  0  0
   69.9638   54.6206   41.6204 H   0  0  0  0  0  0
   71.0697   53.2887   41.8287 H   0  0  0  0  0  0
   69.8289   53.8179   43.9514 H   0  0  0  0  0  0
   71.5543   53.9712   44.1515 H   0  0  0  0  0  0
   69.5719   56.2644   43.7403 H   0  0  0  0  0  0
   70.4452   55.9082   45.2069 H   0  0  0  0  0  0
   71.4918   57.8052   43.9294 H   0  0  0  0  0  0
   72.5978   56.4733   44.1377 H   0  0  0  0  0  0
   72.7327   57.2760   41.8067 H   0  0  0  0  0  0
   71.0073   57.1227   41.6066 H   0  0  0  0  0  0
   72.0629   56.5086   38.6344 H   0  0  0  0  0  0
  1  2  1  0  0  0
  1  7  2  0  0  0
  1 20  1  0  0  0
  2  3  2  0  0  0
  2 13  1  0  0  0
  3  4  1  0  0  0
  3 10  1  0  0  0
  4  5  1  0  0  0
  4 19  1  0  0  0
  5  6  2  0  0  0
  5  7  1  0  0  0
  7  8  1  0  0  0
  8  9  3  0  0  0
 10 11  1  0  0  0
 10 14  1  0  0  0
 10 22  1  0  0  0
 11 12  1  0  0  0
 11 15  1  0  0  0
 11 16  1  0  0  0
 12 13  1  0  0  0
 12 21  1  0  0  0
 13 17  1  0  0  0
 13 18  1  0  0  0
 22 23  1  0  0  0
 22 31  1  0  0  0
 22 32  1  0  0  0
 23 24  1  0  0  0
 23 26  1  0  0  0
 23 30  1  0  0  0
 24 25  1  0  0  0
 24 33  1  0  0  0
 24 34  1  0  0  0
 25 45  1  0  0  0
 26 27  1  0  0  0
 26 35  1  0  0  0
 26 36  1  0  0  0
 27 28  1  0  0  0
 27 37  1  0  0  0
 27 38  1  0  0  0
 28 29  1  0  0  0
 28 39  1  0  0  0
 28 40  1  0  0  0
 29 30  1  0  0  0
 29 41  1  0  0  0
 29 42  1  0  0  0
 30 43  1  0  0  0
 30 44  1  0  0  0
M  END
> <b_m_subgroup_collapsed>
0

> <s_m_subgroup_title>
enumerate_138-out

> <s_m_subgroupid>
enumerate_138-out

$$$$
