10387-2
                    3D
 Schrodinger Suite 2024-3.
 43 46  0  0  1  0            999 V2000
   76.7152   51.2564   42.5117 C   0  0  0  0  0  0
   75.6469   51.8672   41.7091 C   0  0  0  0  0  0
   74.7156   52.5958   42.3599 C   0  0  0  0  0  0
   74.7624   52.7581   43.7471 N   0  0  0  0  0  0
   75.7023   52.2182   44.5484 C   0  0  0  0  0  0
   75.6665   52.3767   45.7684 O   0  0  0  0  0  0
   76.7303   51.4438   43.8559 C   0  0  0  0  0  0
   77.7066   50.8711   44.7216 C   0  0  0  0  0  0
   78.4723   50.4247   45.4646 N   0  0  0  0  0  0
   73.5301   53.2752   41.6754 C   0  0  2  0  0  0
   73.5536   53.2080   40.1403 C   0  0  0  0  0  0
   74.1629   51.9154   39.6394 N   0  0  0  0  0  0
   75.5862   51.7783   40.1806 C   0  0  0  0  0  0
   72.6664   52.6907   41.9933 H   0  0  0  0  0  0
   72.5491   53.3463   39.7375 H   0  0  0  0  0  0
   74.1721   53.9906   39.7152 H   0  0  0  0  0  0
   76.2138   52.5768   39.7810 H   0  0  0  0  0  0
   75.9881   50.8598   39.7711 H   0  0  0  0  0  0
   74.0228   53.3179   44.1572 H   0  0  0  0  0  0
   78.2659   50.0552   41.5379 R   0  0  0  0  0  0
   73.6060   51.1349   39.9569 H   0  0  0  0  0  0
   73.3435   54.6827   42.1592 C   0  0  0  0  0  0
   74.2347   55.6432   41.8422 C   0  0  0  0  0  0
   74.0093   57.0700   42.3556 C   0  0  0  0  0  0
   72.6892   57.1045   43.2033 C   0  0  2  0  0  0
   72.6148   55.9338   44.2188 C   0  0  0  0  0  0
   72.1352   55.0667   43.0266 C   0  0  1  0  0  0
   71.5161   56.3825   42.4894 C   0  0  0  0  0  0
   70.1601   56.7008   43.0463 C   0  0  0  0  0  0
   71.4553   56.5312   40.9980 C   0  0  0  0  0  0
   75.0962   55.4032   41.2325 H   0  0  0  0  0  0
   74.8613   57.3872   42.9589 H   0  0  0  0  0  0
   73.9436   57.7620   41.5146 H   0  0  0  0  0  0
   72.4952   58.1083   43.5870 H   0  0  0  0  0  0
   73.5571   55.6392   44.6857 H   0  0  0  0  0  0
   71.8702   56.0663   45.0084 H   0  0  0  0  0  0
   71.4634   54.2316   43.2367 H   0  0  0  0  0  0
   69.4005   56.1534   42.4883 H   0  0  0  0  0  0
   70.1208   56.4091   44.0958 H   0  0  0  0  0  0
   69.9739   57.7713   42.9596 H   0  0  0  0  0  0
   70.5948   55.9839   40.6131 H   0  0  0  0  0  0
   71.3591   57.5862   40.7417 H   0  0  0  0  0  0
   72.3677   56.1314   40.5556 H   0  0  0  0  0  0
  1  2  1  0  0  0
  1  7  2  0  0  0
  1 20  1  0  0  0
  2  3  2  0  0  0
  2 13  1  0  0  0
  3  4  1  0  0  0
  3 10  1  0  0  0
  4  5  1  0  0  0
  4 19  1  0  0  0
  5  6  2  0  0  0
  5  7  1  0  0  0
  7  8  1  0  0  0
  8  9  3  0  0  0
 10 11  1  0  0  0
 10 14  1  0  0  0
 10 22  1  0  0  0
 11 12  1  0  0  0
 11 15  1  0  0  0
 11 16  1  0  0  0
 12 13  1  0  0  0
 12 21  1  0  0  0
 13 17  1  0  0  0
 13 18  1  0  0  0
 22 23  2  0  0  0
 22 27  1  0  0  0
 23 24  1  0  0  0
 23 31  1  0  0  0
 24 25  1  0  0  0
 24 32  1  0  0  0
 24 33  1  0  0  0
 25 26  1  0  0  0
 25 28  1  0  0  0
 25 34  1  0  0  0
 26 27  1  0  0  0
 26 35  1  0  0  0
 26 36  1  0  0  0
 27 28  1  0  0  0
 27 37  1  0  0  0
 28 29  1  0  0  0
 28 30  1  0  0  0
 29 38  1  0  0  0
 29 39  1  0  0  0
 29 40  1  0  0  0
 30 41  1  0  0  0
 30 42  1  0  0  0
 30 43  1  0  0  0
M  END
> <b_m_subgroup_collapsed>
1

> <s_m_subgroup_title>
enumerate_137-out

> <s_m_subgroupid>
enumerate_137-out

$$$$
