13972-1
                    3D
 Schrodinger Suite 2024-3.
 36 39  0  0  1  0            999 V2000
   76.7152   51.2564   42.5117 C   0  0  0  0  0  0
   75.6469   51.8672   41.7091 C   0  0  0  0  0  0
   74.7156   52.5958   42.3599 C   0  0  0  0  0  0
   74.7624   52.7581   43.7471 N   0  0  0  0  0  0
   75.7023   52.2182   44.5484 C   0  0  0  0  0  0
   75.6665   52.3767   45.7684 O   0  0  0  0  0  0
   76.7303   51.4438   43.8559 C   0  0  0  0  0  0
   77.7066   50.8711   44.7216 C   0  0  0  0  0  0
   78.4723   50.4247   45.4646 N   0  0  0  0  0  0
   73.5301   53.2752   41.6754 C   0  0  2  0  0  0
   73.5536   53.2080   40.1403 C   0  0  0  0  0  0
   74.1629   51.9154   39.6394 N   0  0  0  0  0  0
   75.5862   51.7783   40.1806 C   0  0  0  0  0  0
   72.6664   52.6907   41.9933 H   0  0  0  0  0  0
   72.5491   53.3463   39.7375 H   0  0  0  0  0  0
   74.1721   53.9906   39.7152 H   0  0  0  0  0  0
   76.2138   52.5768   39.7810 H   0  0  0  0  0  0
   75.9881   50.8598   39.7711 H   0  0  0  0  0  0
   74.0228   53.3179   44.1572 H   0  0  0  0  0  0
   78.2659   50.0552   41.5379 R   0  0  0  0  0  0
   73.6060   51.1349   39.9569 H   0  0  0  0  0  0
   73.3435   54.6827   42.1592 C   0  0  0  0  0  0
   74.2237   55.7016   42.4747 C   0  0  0  0  0  0
   73.4194   56.7764   42.8668 C   0  0  0  0  0  0
   73.9082   58.1243   43.3074 C   0  0  0  0  0  0
   73.4671   58.6574   44.6517 C   0  0  0  0  0  0
   74.8956   58.2054   44.4495 C   0  0  0  0  0  0
   72.1392   56.4807   42.8103 N   0  0  0  0  0  0
   72.0978   55.2083   42.3801 N   0  0  0  0  0  0
   75.3049   55.6756   42.4290 H   0  0  0  0  0  0
   74.0101   58.8201   42.4718 H   0  0  0  0  0  0
   73.2612   59.7251   44.7539 H   0  0  0  0  0  0
   72.8034   58.0478   45.2687 H   0  0  0  0  0  0
   75.2285   57.2805   44.9255 H   0  0  0  0  0  0
   75.6863   58.9578   44.4106 H   0  0  0  0  0  0
   71.2250   54.7004   42.2377 H   0  0  0  0  0  0
  1  2  1  0  0  0
  1  7  2  0  0  0
  1 20  1  0  0  0
  2  3  2  0  0  0
  2 13  1  0  0  0
  3  4  1  0  0  0
  3 10  1  0  0  0
  4  5  1  0  0  0
  4 19  1  0  0  0
  5  6  2  0  0  0
  5  7  1  0  0  0
  7  8  1  0  0  0
  8  9  3  0  0  0
 10 11  1  0  0  0
 10 14  1  0  0  0
 10 22  1  0  0  0
 11 12  1  0  0  0
 11 15  1  0  0  0
 11 16  1  0  0  0
 12 13  1  0  0  0
 12 21  1  0  0  0
 13 17  1  0  0  0
 13 18  1  0  0  0
 22 23  2  0  0  0
 22 29  1  0  0  0
 23 24  1  0  0  0
 23 30  1  0  0  0
 24 25  1  0  0  0
 24 28  2  0  0  0
 25 26  1  0  0  0
 25 27  1  0  0  0
 25 31  1  0  0  0
 26 27  1  0  0  0
 26 32  1  0  0  0
 26 33  1  0  0  0
 27 34  1  0  0  0
 27 35  1  0  0  0
 28 29  1  0  0  0
 29 36  1  0  0  0
M  END
> <b_m_subgroup_collapsed>
0

> <s_m_subgroup_title>
enumerate_138-out

> <s_m_subgroupid>
enumerate_138-out

$$$$
