5298-2
                    3D
 Schrodinger Suite 2024-3.
 41 44  0  0  1  0            999 V2000
   76.7152   51.2564   42.5117 C   0  0  0  0  0  0
   75.6469   51.8672   41.7091 C   0  0  0  0  0  0
   74.7156   52.5958   42.3599 C   0  0  0  0  0  0
   74.7624   52.7581   43.7471 N   0  0  0  0  0  0
   75.7023   52.2182   44.5484 C   0  0  0  0  0  0
   75.6665   52.3767   45.7684 O   0  0  0  0  0  0
   76.7303   51.4438   43.8559 C   0  0  0  0  0  0
   77.7066   50.8711   44.7216 C   0  0  0  0  0  0
   78.4723   50.4247   45.4646 N   0  0  0  0  0  0
   73.5301   53.2752   41.6754 C   0  0  2  0  0  0
   73.5536   53.2080   40.1403 C   0  0  0  0  0  0
   74.1629   51.9154   39.6394 N   0  0  0  0  0  0
   75.5862   51.7783   40.1806 C   0  0  0  0  0  0
   72.6664   52.6907   41.9933 H   0  0  0  0  0  0
   72.5491   53.3463   39.7375 H   0  0  0  0  0  0
   74.1721   53.9906   39.7152 H   0  0  0  0  0  0
   76.2138   52.5768   39.7810 H   0  0  0  0  0  0
   75.9881   50.8598   39.7711 H   0  0  0  0  0  0
   74.0228   53.3179   44.1572 H   0  0  0  0  0  0
   78.2659   50.0552   41.5379 R   0  0  0  0  0  0
   73.6060   51.1349   39.9569 H   0  0  0  0  0  0
   73.3485   54.6452   42.1463 N   0  0  0  0  0  0
   72.1756   55.2325   42.3857 C   0  0  0  0  0  0
   71.1000   54.6622   42.2290 O   0  0  0  0  0  0
   72.3458   56.6456   42.8592 C   0  0  2  0  0  0
   71.1721   57.0568   43.7453 C   0  0  0  0  0  0
   70.3221   57.8684   42.8701 N   0  0  0  0  0  0
   70.9056   58.3122   41.7547 C   0  0  0  0  0  0
   70.4907   59.0987   40.9068 O   0  0  0  0  0  0
   72.2657   57.6111   41.6901 C   0  0  0  0  0  0
   72.8758   57.2754   40.3411 C   0  0  0  0  0  0
   73.4786   58.3770   41.1932 C   0  0  0  0  0  0
   73.2944   56.7028   43.3954 H   0  0  0  0  0  0
   70.6355   56.1931   44.1438 H   0  0  0  0  0  0
   71.5122   57.6544   44.5945 H   0  0  0  0  0  0
   73.4201   56.3361   40.2275 H   0  0  0  0  0  0
   72.3470   57.5512   39.4260 H   0  0  0  0  0  0
   73.3648   59.4130   40.8660 H   0  0  0  0  0  0
   74.4442   58.2073   41.6730 H   0  0  0  0  0  0
   74.2546   55.0762   42.2615 H   0  0  0  0  0  0
   69.3932   58.1657   43.1378 H   0  0  0  0  0  0
  1  2  1  0  0  0
  1  7  2  0  0  0
  1 20  1  0  0  0
  2  3  2  0  0  0
  2 13  1  0  0  0
  3  4  1  0  0  0
  3 10  1  0  0  0
  4  5  1  0  0  0
  4 19  1  0  0  0
  5  6  2  0  0  0
  5  7  1  0  0  0
  7  8  1  0  0  0
  8  9  3  0  0  0
 10 11  1  0  0  0
 10 14  1  0  0  0
 10 22  1  0  0  0
 11 12  1  0  0  0
 11 15  1  0  0  0
 11 16  1  0  0  0
 12 13  1  0  0  0
 12 21  1  0  0  0
 13 17  1  0  0  0
 13 18  1  0  0  0
 22 23  1  0  0  0
 22 40  1  0  0  0
 23 24  2  0  0  0
 23 25  1  0  0  0
 25 26  1  0  0  0
 25 30  1  0  0  0
 25 33  1  0  0  0
 26 27  1  0  0  0
 26 34  1  0  0  0
 26 35  1  0  0  0
 27 28  1  0  0  0
 27 41  1  0  0  0
 28 29  2  0  0  0
 28 30  1  0  0  0
 30 31  1  0  0  0
 30 32  1  0  0  0
 31 32  1  0  0  0
 31 36  1  0  0  0
 31 37  1  0  0  0
 32 38  1  0  0  0
 32 39  1  0  0  0
M  END
> <b_m_subgroup_collapsed>
0

> <s_m_subgroup_title>
enumerate_138-out

> <s_m_subgroupid>
enumerate_138-out

$$$$
