1255-1
                    3D
 Schrodinger Suite 2024-3.
 38 39  0  0  1  0            999 V2000
   76.7152   51.2564   42.5117 C   0  0  0  0  0  0
   75.6469   51.8672   41.7091 C   0  0  0  0  0  0
   74.7156   52.5958   42.3599 C   0  0  0  0  0  0
   74.7624   52.7581   43.7471 N   0  0  0  0  0  0
   75.7023   52.2182   44.5484 C   0  0  0  0  0  0
   75.6665   52.3767   45.7684 O   0  0  0  0  0  0
   76.7303   51.4438   43.8559 C   0  0  0  0  0  0
   77.7066   50.8711   44.7216 C   0  0  0  0  0  0
   78.4723   50.4247   45.4646 N   0  0  0  0  0  0
   73.5301   53.2752   41.6754 C   0  0  2  0  0  0
   73.5536   53.2080   40.1403 C   0  0  0  0  0  0
   74.1629   51.9154   39.6394 N   0  0  0  0  0  0
   75.5862   51.7783   40.1806 C   0  0  0  0  0  0
   72.6664   52.6907   41.9933 H   0  0  0  0  0  0
   72.5491   53.3463   39.7375 H   0  0  0  0  0  0
   74.1721   53.9906   39.7152 H   0  0  0  0  0  0
   76.2138   52.5768   39.7810 H   0  0  0  0  0  0
   75.9881   50.8598   39.7711 H   0  0  0  0  0  0
   74.0228   53.3179   44.1572 H   0  0  0  0  0  0
   78.2659   50.0552   41.5379 R   0  0  0  0  0  0
   73.6060   51.1349   39.9569 H   0  0  0  0  0  0
   73.3435   54.6827   42.1592 C   0  0  0  0  0  0
   74.2492   55.4763   42.3974 O   0  0  0  0  0  0
   72.0543   54.9893   42.3073 N   0  0  0  0  0  0
   71.5356   56.2762   42.7616 C   0  0  0  0  0  0
   70.0006   56.1745   42.7796 C   0  0  0  0  0  0
   72.0162   57.3451   41.7649 C   0  0  0  0  0  0
   72.0985   56.5289   44.1710 C   0  0  0  0  0  0
   69.5425   57.1071   43.1116 H   0  0  0  0  0  0
   69.6647   55.3834   43.4509 H   0  0  0  0  0  0
   69.6078   55.9475   41.7878 H   0  0  0  0  0  0
   73.1052   57.3815   41.7187 H   0  0  0  0  0  0
   71.6552   57.1366   40.7570 H   0  0  0  0  0  0
   71.6633   58.3388   42.0439 H   0  0  0  0  0  0
   73.1888   56.5524   44.1629 H   0  0  0  0  0  0
   71.7499   57.4800   44.5756 H   0  0  0  0  0  0
   71.7957   55.7434   44.8643 H   0  0  0  0  0  0
   71.2790   54.3687   42.1233 H   0  0  0  0  0  0
  1  2  1  0  0  0
  1  7  2  0  0  0
  1 20  1  0  0  0
  2  3  2  0  0  0
  2 13  1  0  0  0
  3  4  1  0  0  0
  3 10  1  0  0  0
  4  5  1  0  0  0
  4 19  1  0  0  0
  5  6  2  0  0  0
  5  7  1  0  0  0
  7  8  1  0  0  0
  8  9  3  0  0  0
 10 11  1  0  0  0
 10 14  1  0  0  0
 10 22  1  0  0  0
 11 12  1  0  0  0
 11 15  1  0  0  0
 11 16  1  0  0  0
 12 13  1  0  0  0
 12 21  1  0  0  0
 13 17  1  0  0  0
 13 18  1  0  0  0
 22 23  2  0  0  0
 22 24  1  0  0  0
 24 25  1  0  0  0
 24 38  1  0  0  0
 25 26  1  0  0  0
 25 27  1  0  0  0
 25 28  1  0  0  0
 26 29  1  0  0  0
 26 30  1  0  0  0
 26 31  1  0  0  0
 27 32  1  0  0  0
 27 33  1  0  0  0
 27 34  1  0  0  0
 28 35  1  0  0  0
 28 36  1  0  0  0
 28 37  1  0  0  0
M  END
> <b_m_subgroup_collapsed>
1

> <s_m_subgroup_title>
enumerate_137-out

> <s_m_subgroupid>
enumerate_137-out

$$$$
