19169-3
                    3D
 Schrodinger Suite 2024-3.
 43 46  0  0  1  0            999 V2000
   76.7152   51.2564   42.5117 C   0  0  0  0  0  0
   75.6469   51.8672   41.7091 C   0  0  0  0  0  0
   74.7156   52.5958   42.3599 C   0  0  0  0  0  0
   74.7624   52.7581   43.7471 N   0  0  0  0  0  0
   75.7023   52.2182   44.5484 C   0  0  0  0  0  0
   75.6665   52.3767   45.7684 O   0  0  0  0  0  0
   76.7303   51.4438   43.8559 C   0  0  0  0  0  0
   77.7066   50.8711   44.7216 C   0  0  0  0  0  0
   78.4723   50.4247   45.4646 N   0  0  0  0  0  0
   73.5301   53.2752   41.6754 C   0  0  2  0  0  0
   73.5536   53.2080   40.1403 C   0  0  0  0  0  0
   74.1629   51.9154   39.6394 N   0  0  0  0  0  0
   75.5862   51.7783   40.1806 C   0  0  0  0  0  0
   72.6664   52.6907   41.9933 H   0  0  0  0  0  0
   72.5491   53.3463   39.7375 H   0  0  0  0  0  0
   74.1721   53.9906   39.7152 H   0  0  0  0  0  0
   76.2138   52.5768   39.7810 H   0  0  0  0  0  0
   75.9881   50.8598   39.7711 H   0  0  0  0  0  0
   74.0228   53.3179   44.1572 H   0  0  0  0  0  0
   78.2659   50.0552   41.5379 R   0  0  0  0  0  0
   73.6060   51.1349   39.9569 H   0  0  0  0  0  0
   73.3435   54.6827   42.1592 C   0  0  2  0  0  0
   72.0578   55.2978   41.5763 C   0  0  1  0  0  0
   71.7745   56.6391   42.2778 C   0  0  0  0  0  0
   72.8756   57.5571   41.7127 C   0  0  0  0  0  0
   73.6448   56.6200   40.7634 C   0  0  2  0  0  0
   72.5239   55.7549   40.1988 C   0  0  0  0  0  0
   74.4451   55.6006   41.5951 C   0  0  1  0  0  0
   75.2548   56.2556   42.6747 C   0  0  0  0  0  0
   76.1871   57.0977   42.1037 O   0  0  0  0  0  0
   73.3357   54.6618   43.2498 H   0  0  0  0  0  0
   71.2067   54.6155   41.5743 H   0  0  0  0  0  0
   70.7861   57.0165   42.0116 H   0  0  0  0  0  0
   71.8179   56.5559   43.3645 H   0  0  0  0  0  0
   73.5144   57.9721   42.4934 H   0  0  0  0  0  0
   72.4357   58.3910   41.1640 H   0  0  0  0  0  0
   74.2440   57.1454   40.0185 H   0  0  0  0  0  0
   71.7697   56.3244   39.6523 H   0  0  0  0  0  0
   72.8814   54.9384   39.5686 H   0  0  0  0  0  0
   75.1297   55.0341   40.9623 H   0  0  0  0  0  0
   74.5956   56.8308   43.3249 H   0  0  0  0  0  0
   75.7658   55.4912   43.2600 H   0  0  0  0  0  0
   76.7750   57.5798   42.7533 H   0  0  0  0  0  0
  1  2  1  0  0  0
  1  7  2  0  0  0
  1 20  1  0  0  0
  2  3  2  0  0  0
  2 13  1  0  0  0
  3  4  1  0  0  0
  3 10  1  0  0  0
  4  5  1  0  0  0
  4 19  1  0  0  0
  5  6  2  0  0  0
  5  7  1  0  0  0
  7  8  1  0  0  0
  8  9  3  0  0  0
 10 11  1  0  0  0
 10 14  1  0  0  0
 10 22  1  0  0  0
 11 12  1  0  0  0
 11 15  1  0  0  0
 11 16  1  0  0  0
 12 13  1  0  0  0
 12 21  1  0  0  0
 13 17  1  0  0  0
 13 18  1  0  0  0
 22 23  1  0  0  0
 22 28  1  0  0  0
 22 31  1  0  0  0
 23 24  1  0  0  0
 23 27  1  0  0  0
 23 32  1  0  0  0
 24 25  1  0  0  0
 24 33  1  0  0  0
 24 34  1  0  0  0
 25 26  1  0  0  0
 25 35  1  0  0  0
 25 36  1  0  0  0
 26 27  1  0  0  0
 26 28  1  0  0  0
 26 37  1  0  0  0
 27 38  1  0  0  0
 27 39  1  0  0  0
 28 29  1  0  0  0
 28 40  1  0  0  0
 29 30  1  0  0  0
 29 41  1  0  0  0
 29 42  1  0  0  0
 30 43  1  0  0  0
M  END
> <b_m_subgroup_collapsed>
0

> <s_m_subgroup_title>
enumerate_138-out

> <s_m_subgroupid>
enumerate_138-out

$$$$
