7465-2
                    3D
 Schrodinger Suite 2024-3.
 46 48  0  0  1  0            999 V2000
   76.7152   51.2564   42.5117 C   0  0  0  0  0  0
   75.6469   51.8672   41.7091 C   0  0  0  0  0  0
   74.7156   52.5958   42.3599 C   0  0  0  0  0  0
   74.7624   52.7581   43.7471 N   0  0  0  0  0  0
   75.7023   52.2182   44.5484 C   0  0  0  0  0  0
   75.6665   52.3767   45.7684 O   0  0  0  0  0  0
   76.7303   51.4438   43.8559 C   0  0  0  0  0  0
   77.7066   50.8711   44.7216 C   0  0  0  0  0  0
   78.4723   50.4247   45.4646 N   0  0  0  0  0  0
   73.5301   53.2752   41.6754 C   0  0  2  0  0  0
   73.5536   53.2080   40.1403 C   0  0  0  0  0  0
   74.1629   51.9154   39.6394 N   0  0  0  0  0  0
   75.5862   51.7783   40.1806 C   0  0  0  0  0  0
   72.6664   52.6907   41.9933 H   0  0  0  0  0  0
   72.5491   53.3463   39.7375 H   0  0  0  0  0  0
   74.1721   53.9906   39.7152 H   0  0  0  0  0  0
   76.2138   52.5768   39.7810 H   0  0  0  0  0  0
   75.9881   50.8598   39.7711 H   0  0  0  0  0  0
   74.0228   53.3179   44.1572 H   0  0  0  0  0  0
   78.2659   50.0552   41.5379 R   0  0  0  0  0  0
   73.6060   51.1349   39.9569 H   0  0  0  0  0  0
   72.7022   60.0078   45.1791 C   0  0  0  0  0  0
   73.0862   58.5956   44.8503 C   0  0  0  0  0  0
   74.1999   58.1135   45.0787 O   0  0  0  0  0  0
   72.0705   57.9136   44.2782 N   0  0  0  0  0  0
   70.8036   58.5981   43.9634 C   0  0  0  0  0  0
   70.7035   58.6638   42.4222 C   0  0  0  0  0  0
   70.8544   57.2789   41.7628 C   0  0  0  0  0  0
   72.1321   56.5731   42.2576 C   0  0  2  0  0  0
   72.1914   55.1793   41.7064 C   0  0  0  0  0  0
   73.3584   54.5701   42.1205 O   0  0  0  0  0  0
   72.2223   56.5254   43.8001 C   0  0  0  0  0  0
   71.6693   60.1829   44.8782 H   0  0  0  0  0  0
   72.8006   60.1705   46.2524 H   0  0  0  0  0  0
   73.3577   60.6962   44.6456 H   0  0  0  0  0  0
   70.7335   59.5973   44.4003 H   0  0  0  0  0  0
   69.9743   58.0147   44.3685 H   0  0  0  0  0  0
   71.4719   59.3370   42.0369 H   0  0  0  0  0  0
   69.7492   59.1084   42.1359 H   0  0  0  0  0  0
   70.8683   57.3739   40.6756 H   0  0  0  0  0  0
   69.9841   56.6651   42.0033 H   0  0  0  0  0  0
   73.0099   57.0870   41.8607 H   0  0  0  0  0  0
   72.1685   55.2180   40.6173 H   0  0  0  0  0  0
   71.3358   54.6089   42.0678 H   0  0  0  0  0  0
   71.4120   55.9175   44.2068 H   0  0  0  0  0  0
   73.1600   56.0658   44.1211 H   0  0  0  0  0  0
  1  2  1  0  0  0
  1  7  2  0  0  0
  1 20  1  0  0  0
  2  3  2  0  0  0
  2 13  1  0  0  0
  3  4  1  0  0  0
  3 10  1  0  0  0
  4  5  1  0  0  0
  4 19  1  0  0  0
  5  6  2  0  0  0
  5  7  1  0  0  0
  7  8  1  0  0  0
  8  9  3  0  0  0
 10 11  1  0  0  0
 10 14  1  0  0  0
 10 31  1  0  0  0
 11 12  1  0  0  0
 11 15  1  0  0  0
 11 16  1  0  0  0
 12 13  1  0  0  0
 12 21  1  0  0  0
 13 17  1  0  0  0
 13 18  1  0  0  0
 22 23  1  0  0  0
 22 33  1  0  0  0
 22 34  1  0  0  0
 22 35  1  0  0  0
 23 24  2  0  0  0
 23 25  1  0  0  0
 25 26  1  0  0  0
 25 32  1  0  0  0
 26 27  1  0  0  0
 26 36  1  0  0  0
 26 37  1  0  0  0
 27 28  1  0  0  0
 27 38  1  0  0  0
 27 39  1  0  0  0
 28 29  1  0  0  0
 28 40  1  0  0  0
 28 41  1  0  0  0
 29 30  1  0  0  0
 29 32  1  0  0  0
 29 42  1  0  0  0
 30 31  1  0  0  0
 30 43  1  0  0  0
 30 44  1  0  0  0
 32 45  1  0  0  0
 32 46  1  0  0  0
M  END
> <b_m_subgroup_collapsed>
1

> <s_m_subgroup_title>
enumerate_137-out

> <s_m_subgroupid>
enumerate_137-out

$$$$
