8924-3
                    3D
 Schrodinger Suite 2024-3.
 43 46  0  0  1  0            999 V2000
   76.7152   51.2564   42.5117 C   0  0  0  0  0  0
   75.6469   51.8672   41.7091 C   0  0  0  0  0  0
   74.7156   52.5958   42.3599 C   0  0  0  0  0  0
   74.7624   52.7581   43.7471 N   0  0  0  0  0  0
   75.7023   52.2182   44.5484 C   0  0  0  0  0  0
   75.6665   52.3767   45.7684 O   0  0  0  0  0  0
   76.7303   51.4438   43.8559 C   0  0  0  0  0  0
   77.7066   50.8711   44.7216 C   0  0  0  0  0  0
   78.4723   50.4247   45.4646 N   0  0  0  0  0  0
   73.5301   53.2752   41.6754 C   0  0  2  0  0  0
   73.5536   53.2080   40.1403 C   0  0  0  0  0  0
   74.1629   51.9154   39.6394 N   0  0  0  0  0  0
   75.5862   51.7783   40.1806 C   0  0  0  0  0  0
   72.6664   52.6907   41.9933 H   0  0  0  0  0  0
   72.5491   53.3463   39.7375 H   0  0  0  0  0  0
   74.1721   53.9906   39.7152 H   0  0  0  0  0  0
   76.2138   52.5768   39.7810 H   0  0  0  0  0  0
   75.9881   50.8598   39.7711 H   0  0  0  0  0  0
   74.0228   53.3179   44.1572 H   0  0  0  0  0  0
   78.2659   50.0552   41.5379 R   0  0  0  0  0  0
   73.6060   51.1349   39.9569 H   0  0  0  0  0  0
   73.3435   54.6827   42.1592 C   0  0  0  0  0  0
   74.2611   55.6111   41.8171 C   0  0  0  0  0  0
   74.1405   57.0633   42.2887 C   0  0  2  0  0  0
   74.5593   57.1797   43.7648 C   0  0  0  0  0  0
   73.3151   56.7353   44.5708 C   0  0  0  0  0  0
   72.1951   56.5033   43.5275 C   0  0  2  0  0  0
   72.1305   55.0220   43.0327 C   0  0  0  0  0  0
   72.6426   57.4158   42.3734 C   0  0  2  0  0  0
   71.9015   57.1545   41.0957 C   0  0  0  0  0  0
   75.1136   55.3153   41.2196 H   0  0  0  0  0  0
   74.6851   57.7437   41.6308 H   0  0  0  0  0  0
   75.4431   56.5830   43.9987 H   0  0  0  0  0  0
   74.8058   58.2166   44.0016 H   0  0  0  0  0  0
   73.0272   57.5184   45.2748 H   0  0  0  0  0  0
   73.5136   55.8391   45.1613 H   0  0  0  0  0  0
   71.2225   56.7998   43.9258 H   0  0  0  0  0  0
   71.2246   54.8633   42.4455 H   0  0  0  0  0  0
   72.0694   54.3346   43.8777 H   0  0  0  0  0  0
   72.4969   58.4698   42.6206 H   0  0  0  0  0  0
   72.0221   56.1088   40.8130 H   0  0  0  0  0  0
   70.8431   57.3725   41.2385 H   0  0  0  0  0  0
   72.3007   57.7924   40.3072 H   0  0  0  0  0  0
  1  2  1  0  0  0
  1  7  2  0  0  0
  1 20  1  0  0  0
  2  3  2  0  0  0
  2 13  1  0  0  0
  3  4  1  0  0  0
  3 10  1  0  0  0
  4  5  1  0  0  0
  4 19  1  0  0  0
  5  6  2  0  0  0
  5  7  1  0  0  0
  7  8  1  0  0  0
  8  9  3  0  0  0
 10 11  1  0  0  0
 10 14  1  0  0  0
 10 22  1  0  0  0
 11 12  1  0  0  0
 11 15  1  0  0  0
 11 16  1  0  0  0
 12 13  1  0  0  0
 12 21  1  0  0  0
 13 17  1  0  0  0
 13 18  1  0  0  0
 22 23  2  0  0  0
 22 28  1  0  0  0
 23 24  1  0  0  0
 23 31  1  0  0  0
 24 25  1  0  0  0
 24 29  1  0  0  0
 24 32  1  0  0  0
 25 26  1  0  0  0
 25 33  1  0  0  0
 25 34  1  0  0  0
 26 27  1  0  0  0
 26 35  1  0  0  0
 26 36  1  0  0  0
 27 28  1  0  0  0
 27 29  1  0  0  0
 27 37  1  0  0  0
 28 38  1  0  0  0
 28 39  1  0  0  0
 29 30  1  0  0  0
 29 40  1  0  0  0
 30 41  1  0  0  0
 30 42  1  0  0  0
 30 43  1  0  0  0
M  END
> <b_m_subgroup_collapsed>
1

> <s_m_subgroup_title>
enumerate_137-out

> <s_m_subgroupid>
enumerate_137-out

$$$$
