7848-1
                    3D
 Schrodinger Suite 2024-3.
 40 41  0  0  1  0            999 V2000
   76.7152   51.2564   42.5117 C   0  0  0  0  0  0
   75.6469   51.8672   41.7091 C   0  0  0  0  0  0
   74.7156   52.5958   42.3599 C   0  0  0  0  0  0
   74.7624   52.7581   43.7471 N   0  0  0  0  0  0
   75.7023   52.2182   44.5484 C   0  0  0  0  0  0
   75.6665   52.3767   45.7684 O   0  0  0  0  0  0
   76.7303   51.4438   43.8559 C   0  0  0  0  0  0
   77.7066   50.8711   44.7216 C   0  0  0  0  0  0
   78.4723   50.4247   45.4646 N   0  0  0  0  0  0
   73.5301   53.2752   41.6754 C   0  0  2  0  0  0
   73.5536   53.2080   40.1403 C   0  0  0  0  0  0
   74.1629   51.9154   39.6394 N   0  0  0  0  0  0
   75.5862   51.7783   40.1806 C   0  0  0  0  0  0
   72.6664   52.6907   41.9933 H   0  0  0  0  0  0
   72.5491   53.3463   39.7375 H   0  0  0  0  0  0
   74.1721   53.9906   39.7152 H   0  0  0  0  0  0
   76.2138   52.5768   39.7810 H   0  0  0  0  0  0
   75.9881   50.8598   39.7711 H   0  0  0  0  0  0
   74.0228   53.3179   44.1572 H   0  0  0  0  0  0
   78.2659   50.0552   41.5379 R   0  0  0  0  0  0
   73.6060   51.1349   39.9569 H   0  0  0  0  0  0
   69.0186   58.0394   42.8074 C   0  0  0  0  0  0
   68.4933   56.6347   42.7767 C   0  0  0  0  0  0
   69.5090   55.7079   43.3763 C   0  0  0  0  0  0
   70.7822   55.7830   42.5868 C   0  0  0  0  0  0
   71.7978   54.8562   43.1864 C   0  0  0  0  0  0
   73.3086   54.9454   42.2495 S   0  0  0  0  0  0
   74.3966   55.2403   43.1884 O   0  0  0  0  0  0
   73.0545   55.7884   41.0761 O   0  0  0  0  0  0
   68.2806   58.7129   42.3717 H   0  0  0  0  0  0
   69.2131   58.3320   43.8393 H   0  0  0  0  0  0
   69.9438   58.0940   42.2337 H   0  0  0  0  0  0
   68.2989   56.3420   41.7448 H   0  0  0  0  0  0
   67.5682   56.5800   43.3504 H   0  0  0  0  0  0
   69.1273   54.6871   43.3539 H   0  0  0  0  0  0
   69.7034   56.0005   44.4081 H   0  0  0  0  0  0
   71.1638   56.8038   42.6092 H   0  0  0  0  0  0
   70.5877   55.4904   41.5550 H   0  0  0  0  0  0
   71.4161   53.8355   43.1641 H   0  0  0  0  0  0
   71.9923   55.1489   44.2182 H   0  0  0  0  0  0
  1  2  1  0  0  0
  1  7  2  0  0  0
  1 20  1  0  0  0
  2  3  2  0  0  0
  2 13  1  0  0  0
  3  4  1  0  0  0
  3 10  1  0  0  0
  4  5  1  0  0  0
  4 19  1  0  0  0
  5  6  2  0  0  0
  5  7  1  0  0  0
  7  8  1  0  0  0
  8  9  3  0  0  0
 10 11  1  0  0  0
 10 14  1  0  0  0
 10 27  1  0  0  0
 11 12  1  0  0  0
 11 15  1  0  0  0
 11 16  1  0  0  0
 12 13  1  0  0  0
 12 21  1  0  0  0
 13 17  1  0  0  0
 13 18  1  0  0  0
 22 23  1  0  0  0
 22 30  1  0  0  0
 22 31  1  0  0  0
 22 32  1  0  0  0
 23 24  1  0  0  0
 23 33  1  0  0  0
 23 34  1  0  0  0
 24 25  1  0  0  0
 24 35  1  0  0  0
 24 36  1  0  0  0
 25 26  1  0  0  0
 25 37  1  0  0  0
 25 38  1  0  0  0
 26 27  1  0  0  0
 26 39  1  0  0  0
 26 40  1  0  0  0
 27 28  2  0  0  0
 27 29  2  0  0  0
M  END
> <b_m_subgroup_collapsed>
0

> <s_m_subgroup_title>
enumerate_138-out

> <s_m_subgroupid>
enumerate_138-out

$$$$
