39328-3
                    3D
 Schrodinger Suite 2024-3.
 45 48  0  0  1  0            999 V2000
   76.7152   51.2564   42.5117 C   0  0  0  0  0  0
   75.6469   51.8672   41.7091 C   0  0  0  0  0  0
   74.7156   52.5958   42.3599 C   0  0  0  0  0  0
   74.7624   52.7581   43.7471 N   0  0  0  0  0  0
   75.7023   52.2182   44.5484 C   0  0  0  0  0  0
   75.6665   52.3767   45.7684 O   0  0  0  0  0  0
   76.7303   51.4438   43.8559 C   0  0  0  0  0  0
   77.7066   50.8711   44.7216 C   0  0  0  0  0  0
   78.4723   50.4247   45.4646 N   0  0  0  0  0  0
   73.5301   53.2752   41.6754 C   0  0  2  0  0  0
   73.5536   53.2080   40.1403 C   0  0  0  0  0  0
   74.1629   51.9154   39.6394 N   0  0  0  0  0  0
   75.5862   51.7783   40.1806 C   0  0  0  0  0  0
   72.6664   52.6907   41.9933 H   0  0  0  0  0  0
   72.5491   53.3463   39.7375 H   0  0  0  0  0  0
   74.1721   53.9906   39.7152 H   0  0  0  0  0  0
   76.2138   52.5768   39.7810 H   0  0  0  0  0  0
   75.9881   50.8598   39.7711 H   0  0  0  0  0  0
   74.0228   53.3179   44.1572 H   0  0  0  0  0  0
   78.2659   50.0552   41.5379 R   0  0  0  0  0  0
   73.6060   51.1349   39.9569 H   0  0  0  0  0  0
   73.3435   54.6827   42.1592 C   0  0  2  0  0  0
   72.0579   55.2980   41.5763 C   0  0  1  0  0  0
   71.7743   56.6392   42.2777 C   0  0  0  0  0  0
   72.8761   57.5570   41.7138 C   0  0  0  0  0  0
   73.6451   56.6203   40.7639 C   0  0  2  0  0  0
   72.5242   55.7554   40.1990 C   0  0  0  0  0  0
   74.4453   55.6004   41.5951 C   0  0  0  0  0  0
   75.2555   56.2549   42.6746 C   0  0  0  0  0  0
   75.3862   54.8215   40.7245 C   0  0  0  0  0  0
   73.3356   54.6619   43.2498 H   0  0  0  0  0  0
   71.2068   54.6157   41.5740 H   0  0  0  0  0  0
   70.7863   57.0169   42.0107 H   0  0  0  0  0  0
   71.8166   56.5558   43.3645 H   0  0  0  0  0  0
   73.5150   57.9707   42.4952 H   0  0  0  0  0  0
   72.4369   58.3919   41.1659 H   0  0  0  0  0  0
   74.2443   57.1460   40.0193 H   0  0  0  0  0  0
   71.7701   56.3250   39.6525 H   0  0  0  0  0  0
   72.8819   54.9389   39.5688 H   0  0  0  0  0  0
   76.0172   56.8902   42.2227 H   0  0  0  0  0  0
   74.6023   56.8611   43.3022 H   0  0  0  0  0  0
   75.7357   55.4888   43.2835 H   0  0  0  0  0  0
   76.1569   55.4871   40.3358 H   0  0  0  0  0  0
   75.8521   54.0294   41.3107 H   0  0  0  0  0  0
   74.8333   54.3818   39.8943 H   0  0  0  0  0  0
  1  2  1  0  0  0
  1  7  2  0  0  0
  1 20  1  0  0  0
  2  3  2  0  0  0
  2 13  1  0  0  0
  3  4  1  0  0  0
  3 10  1  0  0  0
  4  5  1  0  0  0
  4 19  1  0  0  0
  5  6  2  0  0  0
  5  7  1  0  0  0
  7  8  1  0  0  0
  8  9  3  0  0  0
 10 11  1  0  0  0
 10 14  1  0  0  0
 10 22  1  0  0  0
 11 12  1  0  0  0
 11 15  1  0  0  0
 11 16  1  0  0  0
 12 13  1  0  0  0
 12 21  1  0  0  0
 13 17  1  0  0  0
 13 18  1  0  0  0
 22 23  1  0  0  0
 22 28  1  0  0  0
 22 31  1  0  0  0
 23 24  1  0  0  0
 23 27  1  0  0  0
 23 32  1  0  0  0
 24 25  1  0  0  0
 24 33  1  0  0  0
 24 34  1  0  0  0
 25 26  1  0  0  0
 25 35  1  0  0  0
 25 36  1  0  0  0
 26 27  1  0  0  0
 26 28  1  0  0  0
 26 37  1  0  0  0
 27 38  1  0  0  0
 27 39  1  0  0  0
 28 29  1  0  0  0
 28 30  1  0  0  0
 29 40  1  0  0  0
 29 41  1  0  0  0
 29 42  1  0  0  0
 30 43  1  0  0  0
 30 44  1  0  0  0
 30 45  1  0  0  0
M  END
> <b_m_subgroup_collapsed>
1

> <s_m_subgroup_title>
enumerate_137-out

> <s_m_subgroupid>
enumerate_137-out

$$$$
