43699-4
                    3D
 Schrodinger Suite 2024-3.
 40 43  0  0  1  0            999 V2000
   76.7152   51.2564   42.5117 C   0  0  0  0  0  0
   75.6469   51.8672   41.7091 C   0  0  0  0  0  0
   74.7156   52.5958   42.3599 C   0  0  0  0  0  0
   74.7624   52.7581   43.7471 N   0  0  0  0  0  0
   75.7023   52.2182   44.5484 C   0  0  0  0  0  0
   75.6665   52.3767   45.7684 O   0  0  0  0  0  0
   76.7303   51.4438   43.8559 C   0  0  0  0  0  0
   77.7066   50.8711   44.7216 C   0  0  0  0  0  0
   78.4723   50.4247   45.4646 N   0  0  0  0  0  0
   73.5301   53.2752   41.6754 C   0  0  2  0  0  0
   73.5536   53.2080   40.1403 C   0  0  0  0  0  0
   74.1629   51.9154   39.6394 N   0  0  0  0  0  0
   75.5862   51.7783   40.1806 C   0  0  0  0  0  0
   72.6664   52.6907   41.9933 H   0  0  0  0  0  0
   72.5491   53.3463   39.7375 H   0  0  0  0  0  0
   74.1721   53.9906   39.7152 H   0  0  0  0  0  0
   76.2138   52.5768   39.7810 H   0  0  0  0  0  0
   75.9881   50.8598   39.7711 H   0  0  0  0  0  0
   74.0228   53.3179   44.1572 H   0  0  0  0  0  0
   78.2659   50.0552   41.5379 R   0  0  0  0  0  0
   73.6060   51.1349   39.9569 H   0  0  0  0  0  0
   73.3584   54.5701   42.1205 O   0  0  0  0  0  0
   72.1914   55.1793   41.7064 C   0  0  1  0  0  0
   71.3241   55.6562   42.8874 C   0  0  0  0  0  0
   71.2054   57.1700   42.6318 C   0  0  1  0  0  0
   72.5625   57.8402   42.9151 C   0  0  0  0  0  0
   73.4299   57.3633   41.7342 C   0  0  0  0  0  0
   72.4550   56.4831   40.9306 C   0  0  2  0  0  0
   71.1372   57.2279   41.1100 C   0  0  0  0  0  0
   71.6426   54.4647   41.0913 H   0  0  0  0  0  0
   70.3435   55.1789   42.8608 H   0  0  0  0  0  0
   71.7771   55.4334   43.8544 H   0  0  0  0  0  0
   70.3680   57.6383   43.1508 H   0  0  0  0  0  0
   72.4688   58.9271   42.9082 H   0  0  0  0  0  0
   72.9757   57.5476   43.8812 H   0  0  0  0  0  0
   74.3130   56.8125   42.0609 H   0  0  0  0  0  0
   73.7683   58.2127   41.1391 H   0  0  0  0  0  0
   72.7595   56.3236   39.8953 H   0  0  0  0  0  0
   71.1560   58.2447   40.7131 H   0  0  0  0  0  0
   70.2788   56.6973   40.6937 H   0  0  0  0  0  0
  1  2  1  0  0  0
  1  7  2  0  0  0
  1 20  1  0  0  0
  2  3  2  0  0  0
  2 13  1  0  0  0
  3  4  1  0  0  0
  3 10  1  0  0  0
  4  5  1  0  0  0
  4 19  1  0  0  0
  5  6  2  0  0  0
  5  7  1  0  0  0
  7  8  1  0  0  0
  8  9  3  0  0  0
 10 11  1  0  0  0
 10 14  1  0  0  0
 10 22  1  0  0  0
 11 12  1  0  0  0
 11 15  1  0  0  0
 11 16  1  0  0  0
 12 13  1  0  0  0
 12 21  1  0  0  0
 13 17  1  0  0  0
 13 18  1  0  0  0
 22 23  1  0  0  0
 23 24  1  0  0  0
 23 28  1  0  0  0
 23 30  1  0  0  0
 24 25  1  0  0  0
 24 31  1  0  0  0
 24 32  1  0  0  0
 25 26  1  0  0  0
 25 29  1  0  0  0
 25 33  1  0  0  0
 26 27  1  0  0  0
 26 34  1  0  0  0
 26 35  1  0  0  0
 27 28  1  0  0  0
 27 36  1  0  0  0
 27 37  1  0  0  0
 28 29  1  0  0  0
 28 38  1  0  0  0
 29 39  1  0  0  0
 29 40  1  0  0  0
M  END
> <b_m_subgroup_collapsed>
1

> <s_m_subgroup_title>
enumerate_137-out

> <s_m_subgroupid>
enumerate_137-out

$$$$
