22326-1
                    3D
 Schrodinger Suite 2024-3.
 46 50  0  0  1  0            999 V2000
   76.7152   51.2564   42.5117 C   0  0  0  0  0  0
   75.6469   51.8672   41.7091 C   0  0  0  0  0  0
   74.7156   52.5958   42.3599 C   0  0  0  0  0  0
   74.7624   52.7581   43.7471 N   0  0  0  0  0  0
   75.7023   52.2182   44.5484 C   0  0  0  0  0  0
   75.6665   52.3767   45.7684 O   0  0  0  0  0  0
   76.7303   51.4438   43.8559 C   0  0  0  0  0  0
   77.7066   50.8711   44.7216 C   0  0  0  0  0  0
   78.4723   50.4247   45.4646 N   0  0  0  0  0  0
   73.5301   53.2752   41.6754 C   0  0  2  0  0  0
   73.5536   53.2080   40.1403 C   0  0  0  0  0  0
   74.1629   51.9154   39.6394 N   0  0  0  0  0  0
   75.5862   51.7783   40.1806 C   0  0  0  0  0  0
   72.6664   52.6907   41.9933 H   0  0  0  0  0  0
   72.5491   53.3463   39.7375 H   0  0  0  0  0  0
   74.1721   53.9906   39.7152 H   0  0  0  0  0  0
   76.2138   52.5768   39.7810 H   0  0  0  0  0  0
   75.9881   50.8598   39.7711 H   0  0  0  0  0  0
   74.0228   53.3179   44.1572 H   0  0  0  0  0  0
   78.2659   50.0552   41.5379 R   0  0  0  0  0  0
   73.6060   51.1349   39.9569 H   0  0  0  0  0  0
   73.3435   54.6827   42.1592 C   0  0  1  0  0  0
   72.0518   54.7701   43.0026 C   0  0  0  0  0  0
   71.8616   56.2201   43.5012 C   0  0  2  0  0  0
   71.7495   57.1709   42.2886 C   0  0  0  0  0  0
   73.0415   57.0828   41.4460 C   0  0  1  0  0  0
   74.2528   57.4934   42.3131 C   0  0  0  0  0  0
   74.3595   56.5406   43.5224 C   0  0  1  0  0  0
   75.4036   56.8942   44.2704 F   0  0  0  0  0  0
   73.0723   56.6306   44.3691 C   0  0  0  0  0  0
   74.5549   55.0922   43.0266 C   0  0  0  0  0  0
   73.2322   55.6334   40.9463 C   0  0  0  0  0  0
   71.1910   54.4582   42.4095 H   0  0  0  0  0  0
   72.1049   54.0830   43.8484 H   0  0  0  0  0  0
   70.9506   56.2827   44.0975 H   0  0  0  0  0  0
   71.5860   58.1958   42.6250 H   0  0  0  0  0  0
   70.8830   56.9073   41.6805 H   0  0  0  0  0  0
   72.9640   57.7550   40.5906 H   0  0  0  0  0  0
   74.1442   58.5238   42.6536 H   0  0  0  0  0  0
   75.1702   57.4592   41.7243 H   0  0  0  0  0  0
   73.1500   55.9828   45.2431 H   0  0  0  0  0  0
   72.9409   57.6446   44.7485 H   0  0  0  0  0  0
   74.6611   54.4147   43.8746 H   0  0  0  0  0  0
   75.4781   55.0121   42.4515 H   0  0  0  0  0  0
   74.1266   55.5616   40.3257 H   0  0  0  0  0  0
   72.3954   55.3394   40.3109 H   0  0  0  0  0  0
  1  2  1  0  0  0
  1  7  2  0  0  0
  1 20  1  0  0  0
  2  3  2  0  0  0
  2 13  1  0  0  0
  3  4  1  0  0  0
  3 10  1  0  0  0
  4  5  1  0  0  0
  4 19  1  0  0  0
  5  6  2  0  0  0
  5  7  1  0  0  0
  7  8  1  0  0  0
  8  9  3  0  0  0
 10 11  1  0  0  0
 10 14  1  0  0  0
 10 22  1  0  0  0
 11 12  1  0  0  0
 11 15  1  0  0  0
 11 16  1  0  0  0
 12 13  1  0  0  0
 12 21  1  0  0  0
 13 17  1  0  0  0
 13 18  1  0  0  0
 22 23  1  0  0  0
 22 31  1  0  0  0
 22 32  1  0  0  0
 23 24  1  0  0  0
 23 33  1  0  0  0
 23 34  1  0  0  0
 24 25  1  0  0  0
 24 30  1  0  0  0
 24 35  1  0  0  0
 25 26  1  0  0  0
 25 36  1  0  0  0
 25 37  1  0  0  0
 26 27  1  0  0  0
 26 32  1  0  0  0
 26 38  1  0  0  0
 27 28  1  0  0  0
 27 39  1  0  0  0
 27 40  1  0  0  0
 28 29  1  0  0  0
 28 30  1  0  0  0
 28 31  1  0  0  0
 30 41  1  0  0  0
 30 42  1  0  0  0
 31 43  1  0  0  0
 31 44  1  0  0  0
 32 45  1  0  0  0
 32 46  1  0  0  0
M  END
> <b_m_subgroup_collapsed>
0

> <s_m_subgroup_title>
enumerate_138-out

> <s_m_subgroupid>
enumerate_138-out

$$$$
