29570-1
                    3D
 Schrodinger Suite 2024-3.
 42 44  0  0  1  0            999 V2000
   76.7152   51.2564   42.5117 C   0  0  0  0  0  0
   75.6469   51.8672   41.7091 C   0  0  0  0  0  0
   74.7156   52.5958   42.3599 C   0  0  0  0  0  0
   74.7624   52.7581   43.7471 N   0  0  0  0  0  0
   75.7023   52.2182   44.5484 C   0  0  0  0  0  0
   75.6665   52.3767   45.7684 O   0  0  0  0  0  0
   76.7303   51.4438   43.8559 C   0  0  0  0  0  0
   77.7066   50.8711   44.7216 C   0  0  0  0  0  0
   78.4723   50.4247   45.4646 N   0  0  0  0  0  0
   73.5301   53.2752   41.6754 C   0  0  2  0  0  0
   73.5536   53.2080   40.1403 C   0  0  0  0  0  0
   74.1629   51.9154   39.6394 N   0  0  0  0  0  0
   75.5862   51.7783   40.1806 C   0  0  0  0  0  0
   72.6664   52.6907   41.9933 H   0  0  0  0  0  0
   72.5491   53.3463   39.7375 H   0  0  0  0  0  0
   74.1721   53.9906   39.7152 H   0  0  0  0  0  0
   76.2138   52.5768   39.7810 H   0  0  0  0  0  0
   75.9881   50.8598   39.7711 H   0  0  0  0  0  0
   74.0228   53.3179   44.1572 H   0  0  0  0  0  0
   78.2659   50.0552   41.5379 R   0  0  0  0  0  0
   73.6060   51.1349   39.9569 H   0  0  0  0  0  0
   74.8479   58.9238   40.3091 C   0  0  0  0  0  0
   74.5491   58.1232   41.5419 C   0  0  0  0  0  0
   73.0958   58.2602   41.8871 C   0  0  0  0  0  0
   72.7971   57.4596   43.1199 C   0  0  0  0  0  0
   71.7911   56.4476   42.8110 N   0  0  0  0  0  0
   70.4295   56.5714   42.8996 C   0  0  0  0  0  0
   69.8493   55.4523   42.5398 N   0  0  0  0  0  0
   70.8592   54.5522   42.1999 N   0  0  0  0  0  0
   72.0037   55.1681   42.3697 C   0  0  0  0  0  0
   73.3485   54.6452   42.1463 N   0  0  0  0  0  0
   75.9039   58.8242   40.0582 H   0  0  0  0  0  0
   74.2415   58.5561   39.4813 H   0  0  0  0  0  0
   74.6152   59.9729   40.4920 H   0  0  0  0  0  0
   75.1555   58.4908   42.3697 H   0  0  0  0  0  0
   74.7817   57.0741   41.3590 H   0  0  0  0  0  0
   72.4895   57.8926   41.0593 H   0  0  0  0  0  0
   72.8632   59.3093   42.0700 H   0  0  0  0  0  0
   72.4198   58.1208   43.9000 H   0  0  0  0  0  0
   73.7084   56.9721   43.4662 H   0  0  0  0  0  0
   69.9595   57.4925   43.2281 H   0  0  0  0  0  0
   74.1729   55.2456   42.3219 H   0  0  0  0  0  0
  1  2  1  0  0  0
  1  7  2  0  0  0
  1 20  1  0  0  0
  2  3  2  0  0  0
  2 13  1  0  0  0
  3  4  1  0  0  0
  3 10  1  0  0  0
  4  5  1  0  0  0
  4 19  1  0  0  0
  5  6  2  0  0  0
  5  7  1  0  0  0
  7  8  1  0  0  0
  8  9  3  0  0  0
 10 11  1  0  0  0
 10 14  1  0  0  0
 10 31  1  0  0  0
 11 12  1  0  0  0
 11 15  1  0  0  0
 11 16  1  0  0  0
 12 13  1  0  0  0
 12 21  1  0  0  0
 13 17  1  0  0  0
 13 18  1  0  0  0
 22 23  1  0  0  0
 22 32  1  0  0  0
 22 33  1  0  0  0
 22 34  1  0  0  0
 23 24  1  0  0  0
 23 35  1  0  0  0
 23 36  1  0  0  0
 24 25  1  0  0  0
 24 37  1  0  0  0
 24 38  1  0  0  0
 25 26  1  0  0  0
 25 39  1  0  0  0
 25 40  1  0  0  0
 26 27  1  0  0  0
 26 30  1  0  0  0
 27 28  2  0  0  0
 27 41  1  0  0  0
 28 29  1  0  0  0
 29 30  2  0  0  0
 30 31  1  0  0  0
 31 42  1  0  0  0
M  END
> <b_m_subgroup_collapsed>
0

> <s_m_subgroup_title>
enumerate_138-out

> <s_m_subgroupid>
enumerate_138-out

$$$$
