44402-1
                    3D
 Schrodinger Suite 2024-3.
 42 44  0  0  1  0            999 V2000
   76.7152   51.2564   42.5117 C   0  0  0  0  0  0
   75.6469   51.8672   41.7091 C   0  0  0  0  0  0
   74.7156   52.5958   42.3599 C   0  0  0  0  0  0
   74.7624   52.7581   43.7471 N   0  0  0  0  0  0
   75.7023   52.2182   44.5484 C   0  0  0  0  0  0
   75.6665   52.3767   45.7684 O   0  0  0  0  0  0
   76.7303   51.4438   43.8559 C   0  0  0  0  0  0
   77.7066   50.8711   44.7216 C   0  0  0  0  0  0
   78.4723   50.4247   45.4646 N   0  0  0  0  0  0
   73.5301   53.2752   41.6754 C   0  0  2  0  0  0
   73.5536   53.2080   40.1403 C   0  0  0  0  0  0
   74.1629   51.9154   39.6394 N   0  0  0  0  0  0
   75.5862   51.7783   40.1806 C   0  0  0  0  0  0
   72.6664   52.6907   41.9933 H   0  0  0  0  0  0
   72.5491   53.3463   39.7375 H   0  0  0  0  0  0
   74.1721   53.9906   39.7152 H   0  0  0  0  0  0
   76.2138   52.5768   39.7810 H   0  0  0  0  0  0
   75.9881   50.8598   39.7711 H   0  0  0  0  0  0
   74.0228   53.3179   44.1572 H   0  0  0  0  0  0
   78.2659   50.0552   41.5379 R   0  0  0  0  0  0
   73.6060   51.1349   39.9569 H   0  0  0  0  0  0
   73.3435   54.6827   42.1592 C   0  0  0  0  0  0
   74.5614   54.9794   42.9830 C   0  0  0  0  0  0
   75.4894   55.2374   43.6240 N   0  0  0  0  0  0
   73.3215   55.6108   40.9307 C   0  0  0  0  0  0
   73.0825   57.1062   41.2213 C   0  0  0  0  0  0
   71.6414   57.4303   41.6600 C   0  0  0  0  0  0
   71.3192   57.2321   43.1564 C   0  0  0  0  0  0
   71.9659   56.0303   43.8772 C   0  0  0  0  0  0
   72.0932   54.7299   43.0606 C   0  0  0  0  0  0
   74.2754   55.5063   40.4106 H   0  0  0  0  0  0
   72.5699   55.2553   40.2233 H   0  0  0  0  0  0
   73.8025   57.4801   41.9514 H   0  0  0  0  0  0
   73.2861   57.6568   40.3010 H   0  0  0  0  0  0
   71.4156   58.4669   41.4031 H   0  0  0  0  0  0
   70.9469   56.8379   41.0613 H   0  0  0  0  0  0
   71.5954   58.1369   43.7011 H   0  0  0  0  0  0
   70.2345   57.1649   43.2588 H   0  0  0  0  0  0
   72.9540   56.3187   44.2410 H   0  0  0  0  0  0
   71.3855   55.8289   44.7794 H   0  0  0  0  0  0
   71.1878   54.5481   42.4790 H   0  0  0  0  0  0
   72.1622   53.8969   43.7627 H   0  0  0  0  0  0
  1  2  1  0  0  0
  1  7  2  0  0  0
  1 20  1  0  0  0
  2  3  2  0  0  0
  2 13  1  0  0  0
  3  4  1  0  0  0
  3 10  1  0  0  0
  4  5  1  0  0  0
  4 19  1  0  0  0
  5  6  2  0  0  0
  5  7  1  0  0  0
  7  8  1  0  0  0
  8  9  3  0  0  0
 10 11  1  0  0  0
 10 14  1  0  0  0
 10 22  1  0  0  0
 11 12  1  0  0  0
 11 15  1  0  0  0
 11 16  1  0  0  0
 12 13  1  0  0  0
 12 21  1  0  0  0
 13 17  1  0  0  0
 13 18  1  0  0  0
 22 23  1  0  0  0
 22 25  1  0  0  0
 22 30  1  0  0  0
 23 24  3  0  0  0
 25 26  1  0  0  0
 25 31  1  0  0  0
 25 32  1  0  0  0
 26 27  1  0  0  0
 26 33  1  0  0  0
 26 34  1  0  0  0
 27 28  1  0  0  0
 27 35  1  0  0  0
 27 36  1  0  0  0
 28 29  1  0  0  0
 28 37  1  0  0  0
 28 38  1  0  0  0
 29 30  1  0  0  0
 29 39  1  0  0  0
 29 40  1  0  0  0
 30 41  1  0  0  0
 30 42  1  0  0  0
M  END
> <b_m_subgroup_collapsed>
1

> <s_m_subgroup_title>
enumerate_137-out

> <s_m_subgroupid>
enumerate_137-out

$$$$
