12888-1
                    3D
 Schrodinger Suite 2024-3.
 43 44  0  0  1  0            999 V2000
   76.7152   51.2564   42.5117 C   0  0  0  0  0  0
   75.6469   51.8672   41.7091 C   0  0  0  0  0  0
   74.7156   52.5958   42.3599 C   0  0  0  0  0  0
   74.7624   52.7581   43.7471 N   0  0  0  0  0  0
   75.7023   52.2182   44.5484 C   0  0  0  0  0  0
   75.6665   52.3767   45.7684 O   0  0  0  0  0  0
   76.7303   51.4438   43.8559 C   0  0  0  0  0  0
   77.7066   50.8711   44.7216 C   0  0  0  0  0  0
   78.4723   50.4247   45.4646 N   0  0  0  0  0  0
   73.5301   53.2752   41.6754 C   0  0  2  0  0  0
   73.5536   53.2080   40.1403 C   0  0  0  0  0  0
   74.1629   51.9154   39.6394 N   0  0  0  0  0  0
   75.5862   51.7783   40.1806 C   0  0  0  0  0  0
   72.6664   52.6907   41.9933 H   0  0  0  0  0  0
   72.5491   53.3463   39.7375 H   0  0  0  0  0  0
   74.1721   53.9906   39.7152 H   0  0  0  0  0  0
   76.2138   52.5768   39.7810 H   0  0  0  0  0  0
   75.9881   50.8598   39.7711 H   0  0  0  0  0  0
   74.0228   53.3179   44.1572 H   0  0  0  0  0  0
   78.2659   50.0552   41.5379 R   0  0  0  0  0  0
   73.6060   51.1349   39.9569 H   0  0  0  0  0  0
   72.8000   58.8901   42.1109 C   0  0  0  0  0  0
   72.9867   57.4826   41.6271 C   0  0  0  0  0  0
   71.8572   56.6294   42.1233 C   0  0  1  0  0  0
   70.5575   57.1686   41.6036 C   0  0  0  0  0  0
   72.0438   55.2219   41.6395 C   0  0  2  0  0  0
   70.9143   54.3687   42.1358 C   0  0  0  0  0  0
   73.3435   54.6827   42.1592 C   0  0  0  0  0  0
   73.6208   59.5101   41.7503 H   0  0  0  0  0  0
   72.7881   58.9011   43.2008 H   0  0  0  0  0  0
   71.8556   59.2819   41.7332 H   0  0  0  0  0  0
   72.9986   57.4716   40.5372 H   0  0  0  0  0  0
   73.9311   57.0908   42.0047 H   0  0  0  0  0  0
   71.8452   56.6404   43.2132 H   0  0  0  0  0  0
   70.5694   57.1576   40.5137 H   0  0  0  0  0  0
   69.7367   56.5486   41.9643 H   0  0  0  0  0  0
   70.4219   58.1914   41.9552 H   0  0  0  0  0  0
   72.0557   55.2109   40.5496 H   0  0  0  0  0  0
   70.9024   54.3797   43.2257 H   0  0  0  0  0  0
   69.9699   54.7605   41.7581 H   0  0  0  0  0  0
   71.0499   53.3459   41.7842 H   0  0  0  0  0  0
   74.1642   55.3027   41.7986 H   0  0  0  0  0  0
   73.3315   54.6937   43.2491 H   0  0  0  0  0  0
  1  2  1  0  0  0
  1  7  2  0  0  0
  1 20  1  0  0  0
  2  3  2  0  0  0
  2 13  1  0  0  0
  3  4  1  0  0  0
  3 10  1  0  0  0
  4  5  1  0  0  0
  4 19  1  0  0  0
  5  6  2  0  0  0
  5  7  1  0  0  0
  7  8  1  0  0  0
  8  9  3  0  0  0
 10 11  1  0  0  0
 10 14  1  0  0  0
 10 28  1  0  0  0
 11 12  1  0  0  0
 11 15  1  0  0  0
 11 16  1  0  0  0
 12 13  1  0  0  0
 12 21  1  0  0  0
 13 17  1  0  0  0
 13 18  1  0  0  0
 22 23  1  0  0  0
 22 29  1  0  0  0
 22 30  1  0  0  0
 22 31  1  0  0  0
 23 24  1  0  0  0
 23 32  1  0  0  0
 23 33  1  0  0  0
 24 25  1  0  0  0
 24 26  1  0  0  0
 24 34  1  0  0  0
 25 35  1  0  0  0
 25 36  1  0  0  0
 25 37  1  0  0  0
 26 27  1  0  0  0
 26 28  1  0  0  0
 26 38  1  0  0  0
 27 39  1  0  0  0
 27 40  1  0  0  0
 27 41  1  0  0  0
 28 42  1  0  0  0
 28 43  1  0  0  0
M  END
> <b_m_subgroup_collapsed>
0

> <s_m_subgroup_title>
enumerate_138-out

> <s_m_subgroupid>
enumerate_138-out

$$$$
