14376-1
                    3D
 Schrodinger Suite 2024-3.
 44 48  0  0  1  0            999 V2000
   76.7152   51.2564   42.5117 C   0  0  0  0  0  0
   75.6469   51.8672   41.7091 C   0  0  0  0  0  0
   74.7156   52.5958   42.3599 C   0  0  0  0  0  0
   74.7624   52.7581   43.7471 N   0  0  0  0  0  0
   75.7023   52.2182   44.5484 C   0  0  0  0  0  0
   75.6665   52.3767   45.7684 O   0  0  0  0  0  0
   76.7303   51.4438   43.8559 C   0  0  0  0  0  0
   77.7066   50.8711   44.7216 C   0  0  0  0  0  0
   78.4723   50.4247   45.4646 N   0  0  0  0  0  0
   73.5301   53.2752   41.6754 C   0  0  2  0  0  0
   73.5536   53.2080   40.1403 C   0  0  0  0  0  0
   74.1629   51.9154   39.6394 N   0  0  0  0  0  0
   75.5862   51.7783   40.1806 C   0  0  0  0  0  0
   72.6664   52.6907   41.9933 H   0  0  0  0  0  0
   72.5491   53.3463   39.7375 H   0  0  0  0  0  0
   74.1721   53.9906   39.7152 H   0  0  0  0  0  0
   76.2138   52.5768   39.7810 H   0  0  0  0  0  0
   75.9881   50.8598   39.7711 H   0  0  0  0  0  0
   74.0228   53.3179   44.1572 H   0  0  0  0  0  0
   78.2659   50.0552   41.5379 R   0  0  0  0  0  0
   73.6060   51.1349   39.9569 H   0  0  0  0  0  0
   73.3435   54.6827   42.1592 C   0  0  1  0  0  0
   72.0674   54.7743   43.0191 C   0  0  0  0  0  0
   71.9340   56.2135   43.5464 C   0  0  2  0  0  0
   71.8488   57.2033   42.3596 C   0  0  0  0  0  0
   73.1184   57.0799   41.4830 C   0  0  1  0  0  0
   74.3687   57.3822   42.3272 C   0  0  0  0  0  0
   74.4291   56.3759   43.4933 C   0  0  1  0  0  0
   73.1839   56.5155   44.3912 C   0  0  0  0  0  0
   74.4770   55.0439   42.9616 O   0  0  0  0  0  0
   73.2523   55.6409   40.9552 C   0  0  0  0  0  0
   71.1915   54.4976   42.4313 H   0  0  0  0  0  0
   72.1236   54.0667   43.8471 H   0  0  0  0  0  0
   71.0401   56.2992   44.1651 H   0  0  0  0  0  0
   71.7433   58.2248   42.7279 H   0  0  0  0  0  0
   70.9581   57.0006   41.7633 H   0  0  0  0  0  0
   73.0599   57.7766   40.6463 H   0  0  0  0  0  0
   75.2701   57.3026   41.7184 H   0  0  0  0  0  0
   74.3382   58.4040   42.7071 H   0  0  0  0  0  0
   75.3304   56.5470   44.0825 H   0  0  0  0  0  0
   73.1294   57.5196   44.8132 H   0  0  0  0  0  0
   73.2523   55.8263   45.2338 H   0  0  0  0  0  0
   74.1421   55.5429   40.3321 H   0  0  0  0  0  0
   72.4006   55.3814   40.3255 H   0  0  0  0  0  0
  1  2  1  0  0  0
  1  7  2  0  0  0
  1 20  1  0  0  0
  2  3  2  0  0  0
  2 13  1  0  0  0
  3  4  1  0  0  0
  3 10  1  0  0  0
  4  5  1  0  0  0
  4 19  1  0  0  0
  5  6  2  0  0  0
  5  7  1  0  0  0
  7  8  1  0  0  0
  8  9  3  0  0  0
 10 11  1  0  0  0
 10 14  1  0  0  0
 10 22  1  0  0  0
 11 12  1  0  0  0
 11 15  1  0  0  0
 11 16  1  0  0  0
 12 13  1  0  0  0
 12 21  1  0  0  0
 13 17  1  0  0  0
 13 18  1  0  0  0
 22 23  1  0  0  0
 22 30  1  0  0  0
 22 31  1  0  0  0
 23 24  1  0  0  0
 23 32  1  0  0  0
 23 33  1  0  0  0
 24 25  1  0  0  0
 24 29  1  0  0  0
 24 34  1  0  0  0
 25 26  1  0  0  0
 25 35  1  0  0  0
 25 36  1  0  0  0
 26 27  1  0  0  0
 26 31  1  0  0  0
 26 37  1  0  0  0
 27 28  1  0  0  0
 27 38  1  0  0  0
 27 39  1  0  0  0
 28 29  1  0  0  0
 28 30  1  0  0  0
 28 40  1  0  0  0
 29 41  1  0  0  0
 29 42  1  0  0  0
 31 43  1  0  0  0
 31 44  1  0  0  0
M  END
> <b_m_subgroup_collapsed>
1

> <s_m_subgroup_title>
enumerate_137-out

> <s_m_subgroupid>
enumerate_137-out

$$$$
