28911-1
                    3D
 Schrodinger Suite 2024-3.
 42 45  0  0  1  0            999 V2000
   76.7152   51.2564   42.5117 C   0  0  0  0  0  0
   75.6469   51.8672   41.7091 C   0  0  0  0  0  0
   74.7156   52.5958   42.3599 C   0  0  0  0  0  0
   74.7624   52.7581   43.7471 N   0  0  0  0  0  0
   75.7023   52.2182   44.5484 C   0  0  0  0  0  0
   75.6665   52.3767   45.7684 O   0  0  0  0  0  0
   76.7303   51.4438   43.8559 C   0  0  0  0  0  0
   77.7066   50.8711   44.7216 C   0  0  0  0  0  0
   78.4723   50.4247   45.4646 N   0  0  0  0  0  0
   73.5301   53.2752   41.6754 C   0  0  2  0  0  0
   73.5536   53.2080   40.1403 C   0  0  0  0  0  0
   74.1629   51.9154   39.6394 N   0  0  0  0  0  0
   75.5862   51.7783   40.1806 C   0  0  0  0  0  0
   72.6664   52.6907   41.9933 H   0  0  0  0  0  0
   72.5491   53.3463   39.7375 H   0  0  0  0  0  0
   74.1721   53.9906   39.7152 H   0  0  0  0  0  0
   76.2138   52.5768   39.7810 H   0  0  0  0  0  0
   75.9881   50.8598   39.7711 H   0  0  0  0  0  0
   74.0228   53.3179   44.1572 H   0  0  0  0  0  0
   78.2659   50.0552   41.5379 R   0  0  0  0  0  0
   73.6060   51.1349   39.9569 H   0  0  0  0  0  0
   73.3435   54.6827   42.1592 C   0  0  1  0  0  0
   74.5488   55.0925   43.0233 C   0  0  0  0  0  0
   74.8328   56.5515   42.6740 C   0  0  0  0  0  0
   74.4729   56.6507   41.1935 C   0  0  0  0  0  0
   73.2948   55.6836   40.9837 C   0  0  2  0  0  0
   71.9143   56.3596   41.0516 C   0  0  0  0  0  0
   71.4265   56.1642   42.4851 C   0  0  0  0  0  0
   71.9902   54.8017   42.8816 C   0  0  0  0  0  0
   74.3874   54.9428   44.0913 H   0  0  0  0  0  0
   75.4116   54.4864   42.7433 H   0  0  0  0  0  0
   75.8657   56.8378   42.8750 H   0  0  0  0  0  0
   74.1886   57.2078   43.2597 H   0  0  0  0  0  0
   75.3226   56.3128   40.5986 H   0  0  0  0  0  0
   74.2544   57.6735   40.8847 H   0  0  0  0  0  0
   73.4057   55.1779   40.0230 H   0  0  0  0  0  0
   71.9305   57.4091   40.7556 H   0  0  0  0  0  0
   71.2319   55.8472   40.3719 H   0  0  0  0  0  0
   71.8395   56.9410   43.1292 H   0  0  0  0  0  0
   70.3402   56.2094   42.5686 H   0  0  0  0  0  0
   71.3209   54.0213   42.5168 H   0  0  0  0  0  0
   72.0636   54.6788   43.9626 H   0  0  0  0  0  0
  1  2  1  0  0  0
  1  7  2  0  0  0
  1 20  1  0  0  0
  2  3  2  0  0  0
  2 13  1  0  0  0
  3  4  1  0  0  0
  3 10  1  0  0  0
  4  5  1  0  0  0
  4 19  1  0  0  0
  5  6  2  0  0  0
  5  7  1  0  0  0
  7  8  1  0  0  0
  8  9  3  0  0  0
 10 11  1  0  0  0
 10 14  1  0  0  0
 10 22  1  0  0  0
 11 12  1  0  0  0
 11 15  1  0  0  0
 11 16  1  0  0  0
 12 13  1  0  0  0
 12 21  1  0  0  0
 13 17  1  0  0  0
 13 18  1  0  0  0
 22 23  1  0  0  0
 22 26  1  0  0  0
 22 29  1  0  0  0
 23 24  1  0  0  0
 23 30  1  0  0  0
 23 31  1  0  0  0
 24 25  1  0  0  0
 24 32  1  0  0  0
 24 33  1  0  0  0
 25 26  1  0  0  0
 25 34  1  0  0  0
 25 35  1  0  0  0
 26 27  1  0  0  0
 26 36  1  0  0  0
 27 28  1  0  0  0
 27 37  1  0  0  0
 27 38  1  0  0  0
 28 29  1  0  0  0
 28 39  1  0  0  0
 28 40  1  0  0  0
 29 41  1  0  0  0
 29 42  1  0  0  0
M  END
> <b_m_subgroup_collapsed>
1

> <s_m_subgroup_title>
enumerate_137-out

> <s_m_subgroupid>
enumerate_137-out

$$$$
