21482-1
                    3D
 Schrodinger Suite 2024-3.
 42 43  0  0  1  0            999 V2000
   76.7152   51.2564   42.5117 C   0  0  0  0  0  0
   75.6469   51.8672   41.7091 C   0  0  0  0  0  0
   74.7156   52.5958   42.3599 C   0  0  0  0  0  0
   74.7624   52.7581   43.7471 N   0  0  0  0  0  0
   75.7023   52.2182   44.5484 C   0  0  0  0  0  0
   75.6665   52.3767   45.7684 O   0  0  0  0  0  0
   76.7303   51.4438   43.8559 C   0  0  0  0  0  0
   77.7066   50.8711   44.7216 C   0  0  0  0  0  0
   78.4723   50.4247   45.4646 N   0  0  0  0  0  0
   73.5301   53.2752   41.6754 C   0  0  2  0  0  0
   73.5536   53.2080   40.1403 C   0  0  0  0  0  0
   74.1629   51.9154   39.6394 N   0  0  0  0  0  0
   75.5862   51.7783   40.1806 C   0  0  0  0  0  0
   72.6664   52.6907   41.9933 H   0  0  0  0  0  0
   72.5491   53.3463   39.7375 H   0  0  0  0  0  0
   74.1721   53.9906   39.7152 H   0  0  0  0  0  0
   76.2138   52.5768   39.7810 H   0  0  0  0  0  0
   75.9881   50.8598   39.7711 H   0  0  0  0  0  0
   74.0228   53.3179   44.1572 H   0  0  0  0  0  0
   78.2659   50.0552   41.5379 R   0  0  0  0  0  0
   73.6060   51.1349   39.9569 H   0  0  0  0  0  0
   68.3171   52.6818   39.9304 C   0  0  0  0  0  0
   68.8016   53.5909   40.8486 O   0  0  0  0  0  0
   69.2949   54.7604   40.3069 C   0  0  0  0  0  0
   69.7858   55.6532   41.4078 C   0  0  0  0  0  0
   70.8746   54.9564   42.1687 C   0  0  0  0  0  0
   70.7058   54.2374   43.1491 O   0  0  0  0  0  0
   72.0785   55.2075   41.6534 N   0  0  0  0  0  0
   73.3435   54.6827   42.1592 C   0  0  2  0  0  0
   74.4730   55.5359   41.6630 C   0  0  0  0  0  0
   67.9525   51.7972   40.4526 H   0  0  0  0  0  0
   67.5004   53.1339   39.3677 H   0  0  0  0  0  0
   69.1157   52.3962   39.2457 H   0  0  0  0  0  0
   68.5037   55.2667   39.7540 H   0  0  0  0  0  0
   70.1190   54.5290   39.6321 H   0  0  0  0  0  0
   68.9617   55.8846   42.0826 H   0  0  0  0  0  0
   70.1754   56.5769   40.9799 H   0  0  0  0  0  0
   73.3315   54.6937   43.2491 H   0  0  0  0  0  0
   75.4174   55.1441   42.0406 H   0  0  0  0  0  0
   74.4849   55.5249   40.5731 H   0  0  0  0  0  0
   74.3373   56.5587   42.0145 H   0  0  0  0  0  0
   72.2624   55.7915   40.8501 H   0  0  0  0  0  0
  1  2  1  0  0  0
  1  7  2  0  0  0
  1 20  1  0  0  0
  2  3  2  0  0  0
  2 13  1  0  0  0
  3  4  1  0  0  0
  3 10  1  0  0  0
  4  5  1  0  0  0
  4 19  1  0  0  0
  5  6  2  0  0  0
  5  7  1  0  0  0
  7  8  1  0  0  0
  8  9  3  0  0  0
 10 11  1  0  0  0
 10 14  1  0  0  0
 10 29  1  0  0  0
 11 12  1  0  0  0
 11 15  1  0  0  0
 11 16  1  0  0  0
 12 13  1  0  0  0
 12 21  1  0  0  0
 13 17  1  0  0  0
 13 18  1  0  0  0
 22 23  1  0  0  0
 22 31  1  0  0  0
 22 32  1  0  0  0
 22 33  1  0  0  0
 23 24  1  0  0  0
 24 25  1  0  0  0
 24 34  1  0  0  0
 24 35  1  0  0  0
 25 26  1  0  0  0
 25 36  1  0  0  0
 25 37  1  0  0  0
 26 27  2  0  0  0
 26 28  1  0  0  0
 28 29  1  0  0  0
 28 42  1  0  0  0
 29 30  1  0  0  0
 29 38  1  0  0  0
 30 39  1  0  0  0
 30 40  1  0  0  0
 30 41  1  0  0  0
M  END
> <b_m_subgroup_collapsed>
0

> <s_m_subgroup_title>
enumerate_138-out

> <s_m_subgroupid>
enumerate_138-out

$$$$
