15989-3
                    3D
 Schrodinger Suite 2024-3.
 39 42  0  0  1  0            999 V2000
   76.7152   51.2564   42.5117 C   0  0  0  0  0  0
   75.6469   51.8672   41.7091 C   0  0  0  0  0  0
   74.7156   52.5958   42.3599 C   0  0  0  0  0  0
   74.7624   52.7581   43.7471 N   0  0  0  0  0  0
   75.7023   52.2182   44.5484 C   0  0  0  0  0  0
   75.6665   52.3767   45.7684 O   0  0  0  0  0  0
   76.7303   51.4438   43.8559 C   0  0  0  0  0  0
   77.7066   50.8711   44.7216 C   0  0  0  0  0  0
   78.4723   50.4247   45.4646 N   0  0  0  0  0  0
   73.5301   53.2752   41.6754 C   0  0  2  0  0  0
   73.5536   53.2080   40.1403 C   0  0  0  0  0  0
   74.1629   51.9154   39.6394 N   0  0  0  0  0  0
   75.5862   51.7783   40.1806 C   0  0  0  0  0  0
   72.6664   52.6907   41.9933 H   0  0  0  0  0  0
   72.5491   53.3463   39.7375 H   0  0  0  0  0  0
   74.1721   53.9906   39.7152 H   0  0  0  0  0  0
   76.2138   52.5768   39.7810 H   0  0  0  0  0  0
   75.9881   50.8598   39.7711 H   0  0  0  0  0  0
   74.0228   53.3179   44.1572 H   0  0  0  0  0  0
   78.2659   50.0552   41.5379 R   0  0  0  0  0  0
   73.6060   51.1349   39.9569 H   0  0  0  0  0  0
   73.3584   54.5701   42.1205 O   0  0  0  0  0  0
   72.1914   55.1793   41.7064 C   0  0  2  0  0  0
   72.5274   56.4743   40.9765 C   0  0  0  0  0  0
   72.7800   57.3826   42.0371 O   0  0  0  0  0  0
   71.8165   57.1371   43.0575 C   0  0  2  0  0  0
   72.4282   57.2096   44.4471 C   0  0  1  0  0  0
   72.1036   58.3394   45.0780 F   0  0  0  0  0  0
   71.8543   55.9775   45.1394 C   0  0  0  0  0  0
   71.8022   55.0078   44.1022 O   0  0  0  0  0  0
   71.4030   55.6709   42.9079 C   0  0  2  0  0  0
   71.6375   54.4706   41.0908 H   0  0  0  0  0  0
   73.3891   56.3759   40.3158 H   0  0  0  0  0  0
   71.6778   56.8240   40.3876 H   0  0  0  0  0  0
   70.9509   57.7923   42.9475 H   0  0  0  0  0  0
   73.5151   57.1434   44.3934 H   0  0  0  0  0  0
   72.4625   55.6429   45.9800 H   0  0  0  0  0  0
   70.8432   56.1709   45.5015 H   0  0  0  0  0  0
   70.3257   55.5891   42.7562 H   0  0  0  0  0  0
  1  2  1  0  0  0
  1  7  2  0  0  0
  1 20  1  0  0  0
  2  3  2  0  0  0
  2 13  1  0  0  0
  3  4  1  0  0  0
  3 10  1  0  0  0
  4  5  1  0  0  0
  4 19  1  0  0  0
  5  6  2  0  0  0
  5  7  1  0  0  0
  7  8  1  0  0  0
  8  9  3  0  0  0
 10 11  1  0  0  0
 10 14  1  0  0  0
 10 22  1  0  0  0
 11 12  1  0  0  0
 11 15  1  0  0  0
 11 16  1  0  0  0
 12 13  1  0  0  0
 12 21  1  0  0  0
 13 17  1  0  0  0
 13 18  1  0  0  0
 22 23  1  0  0  0
 23 24  1  0  0  0
 23 31  1  0  0  0
 23 32  1  0  0  0
 24 25  1  0  0  0
 24 33  1  0  0  0
 24 34  1  0  0  0
 25 26  1  0  0  0
 26 27  1  0  0  0
 26 31  1  0  0  0
 26 35  1  0  0  0
 27 28  1  0  0  0
 27 29  1  0  0  0
 27 36  1  0  0  0
 29 30  1  0  0  0
 29 37  1  0  0  0
 29 38  1  0  0  0
 30 31  1  0  0  0
 31 39  1  0  0  0
M  END
> <b_m_subgroup_collapsed>
0

> <s_m_subgroup_title>
enumerate_138-out

> <s_m_subgroupid>
enumerate_138-out

$$$$
