3723-2
                    3D
 Schrodinger Suite 2024-3.
 40 41  0  0  1  0            999 V2000
   76.7152   51.2564   42.5117 C   0  0  0  0  0  0
   75.6469   51.8672   41.7091 C   0  0  0  0  0  0
   74.7156   52.5958   42.3599 C   0  0  0  0  0  0
   74.7624   52.7581   43.7471 N   0  0  0  0  0  0
   75.7023   52.2182   44.5484 C   0  0  0  0  0  0
   75.6665   52.3767   45.7684 O   0  0  0  0  0  0
   76.7303   51.4438   43.8559 C   0  0  0  0  0  0
   77.7066   50.8711   44.7216 C   0  0  0  0  0  0
   78.4723   50.4247   45.4646 N   0  0  0  0  0  0
   73.5301   53.2752   41.6754 C   0  0  2  0  0  0
   73.5536   53.2080   40.1403 C   0  0  0  0  0  0
   74.1629   51.9154   39.6394 N   0  0  0  0  0  0
   75.5862   51.7783   40.1806 C   0  0  0  0  0  0
   72.6664   52.6907   41.9933 H   0  0  0  0  0  0
   72.5491   53.3463   39.7375 H   0  0  0  0  0  0
   74.1721   53.9906   39.7152 H   0  0  0  0  0  0
   76.2138   52.5768   39.7810 H   0  0  0  0  0  0
   75.9881   50.8598   39.7711 H   0  0  0  0  0  0
   74.0228   53.3179   44.1572 H   0  0  0  0  0  0
   78.2659   50.0552   41.5379 R   0  0  0  0  0  0
   73.6060   51.1349   39.9569 H   0  0  0  0  0  0
   73.3485   54.6452   42.1463 N   0  0  0  0  0  0
   72.0836   55.1706   41.6408 C   0  0  2  0  0  0
   72.3469   56.3834   40.7983 C   0  0  0  0  0  0
   71.4335   56.5277   39.8377 N   0  0  0  0  0  0
   73.2815   57.1642   40.9524 O   0  0  0  0  0  0
   71.2010   55.5453   42.7944 C   0  0  0  0  0  0
   71.8814   56.5929   43.6248 C   0  0  0  0  0  0
   70.9377   54.3325   43.6369 C   0  0  0  0  0  0
   74.1094   55.2198   41.8134 H   0  0  0  0  0  0
   71.5891   54.4094   41.0374 H   0  0  0  0  0  0
   70.6506   55.9106   39.6754 H   0  0  0  0  0  0
   70.2567   55.9376   42.4170 H   0  0  0  0  0  0
   72.8258   56.2006   44.0023 H   0  0  0  0  0  0
   71.2401   56.8651   44.4631 H   0  0  0  0  0  0
   72.0728   57.4741   43.0126 H   0  0  0  0  0  0
   71.8820   53.9402   44.0143 H   0  0  0  0  0  0
   70.2963   54.6048   44.4752 H   0  0  0  0  0  0
   70.4432   53.5713   43.0335 H   0  0  0  0  0  0
   71.4129   57.2717   39.1550 H   0  0  0  0  0  0
  1  2  1  0  0  0
  1  7  2  0  0  0
  1 20  1  0  0  0
  2  3  2  0  0  0
  2 13  1  0  0  0
  3  4  1  0  0  0
  3 10  1  0  0  0
  4  5  1  0  0  0
  4 19  1  0  0  0
  5  6  2  0  0  0
  5  7  1  0  0  0
  7  8  1  0  0  0
  8  9  3  0  0  0
 10 11  1  0  0  0
 10 14  1  0  0  0
 10 22  1  0  0  0
 11 12  1  0  0  0
 11 15  1  0  0  0
 11 16  1  0  0  0
 12 13  1  0  0  0
 12 21  1  0  0  0
 13 17  1  0  0  0
 13 18  1  0  0  0
 22 23  1  0  0  0
 22 30  1  0  0  0
 23 24  1  0  0  0
 23 27  1  0  0  0
 23 31  1  0  0  0
 24 25  1  0  0  0
 24 26  2  0  0  0
 25 32  1  0  0  0
 25 40  1  0  0  0
 27 28  1  0  0  0
 27 29  1  0  0  0
 27 33  1  0  0  0
 28 34  1  0  0  0
 28 35  1  0  0  0
 28 36  1  0  0  0
 29 37  1  0  0  0
 29 38  1  0  0  0
 29 39  1  0  0  0
M  END
> <b_m_subgroup_collapsed>
0

> <s_m_subgroup_title>
enumerate_138-out

> <s_m_subgroupid>
enumerate_138-out

$$$$
