36329-2
                    3D
 Schrodinger Suite 2024-3.
 40 42  0  0  1  0            999 V2000
   76.7152   51.2564   42.5117 C   0  0  0  0  0  0
   75.6469   51.8672   41.7091 C   0  0  0  0  0  0
   74.7156   52.5958   42.3599 C   0  0  0  0  0  0
   74.7624   52.7581   43.7471 N   0  0  0  0  0  0
   75.7023   52.2182   44.5484 C   0  0  0  0  0  0
   75.6665   52.3767   45.7684 O   0  0  0  0  0  0
   76.7303   51.4438   43.8559 C   0  0  0  0  0  0
   77.7066   50.8711   44.7216 C   0  0  0  0  0  0
   78.4723   50.4247   45.4646 N   0  0  0  0  0  0
   73.5301   53.2752   41.6754 C   0  0  2  0  0  0
   73.5536   53.2080   40.1403 C   0  0  0  0  0  0
   74.1629   51.9154   39.6394 N   0  0  0  0  0  0
   75.5862   51.7783   40.1806 C   0  0  0  0  0  0
   72.6664   52.6907   41.9933 H   0  0  0  0  0  0
   72.5491   53.3463   39.7375 H   0  0  0  0  0  0
   74.1721   53.9906   39.7152 H   0  0  0  0  0  0
   76.2138   52.5768   39.7810 H   0  0  0  0  0  0
   75.9881   50.8598   39.7711 H   0  0  0  0  0  0
   74.0228   53.3179   44.1572 H   0  0  0  0  0  0
   78.2659   50.0552   41.5379 R   0  0  0  0  0  0
   73.6060   51.1349   39.9569 H   0  0  0  0  0  0
   73.3435   54.6827   42.1592 C   0  0  0  0  0  0
   74.2492   55.4763   42.3974 O   0  0  0  0  0  0
   72.0543   54.9893   42.3073 N   0  0  0  0  0  0
   71.5356   56.2762   42.7616 C   0  0  2  0  0  0
   70.7789   56.1023   44.0737 C   0  0  0  0  0  0
   69.5871   56.6721   44.3391 C   0  0  0  0  0  0
   68.8453   57.5901   43.3740 C   0  0  0  0  0  0
   69.7674   58.0484   42.2198 C   0  0  0  0  0  0
   70.6282   56.8940   41.6719 C   0  0  0  0  0  0
   72.4045   56.9118   42.9403 H   0  0  0  0  0  0
   71.2186   55.4771   44.8404 H   0  0  0  0  0  0
   69.1360   56.4679   45.3019 H   0  0  0  0  0  0
   67.9778   57.0573   42.9810 H   0  0  0  0  0  0
   68.4563   58.4591   43.9073 H   0  0  0  0  0  0
   69.1693   58.4885   41.4201 H   0  0  0  0  0  0
   70.4250   58.8443   42.5751 H   0  0  0  0  0  0
   71.2371   57.2389   40.8345 H   0  0  0  0  0  0
   69.9709   56.1220   41.2667 H   0  0  0  0  0  0
   71.2790   54.3687   42.1233 H   0  0  0  0  0  0
  1  2  1  0  0  0
  1  7  2  0  0  0
  1 20  1  0  0  0
  2  3  2  0  0  0
  2 13  1  0  0  0
  3  4  1  0  0  0
  3 10  1  0  0  0
  4  5  1  0  0  0
  4 19  1  0  0  0
  5  6  2  0  0  0
  5  7  1  0  0  0
  7  8  1  0  0  0
  8  9  3  0  0  0
 10 11  1  0  0  0
 10 14  1  0  0  0
 10 22  1  0  0  0
 11 12  1  0  0  0
 11 15  1  0  0  0
 11 16  1  0  0  0
 12 13  1  0  0  0
 12 21  1  0  0  0
 13 17  1  0  0  0
 13 18  1  0  0  0
 22 23  2  0  0  0
 22 24  1  0  0  0
 24 25  1  0  0  0
 24 40  1  0  0  0
 25 26  1  0  0  0
 25 30  1  0  0  0
 25 31  1  0  0  0
 26 27  2  0  0  0
 26 32  1  0  0  0
 27 28  1  0  0  0
 27 33  1  0  0  0
 28 29  1  0  0  0
 28 34  1  0  0  0
 28 35  1  0  0  0
 29 30  1  0  0  0
 29 36  1  0  0  0
 29 37  1  0  0  0
 30 38  1  0  0  0
 30 39  1  0  0  0
M  END
> <b_m_subgroup_collapsed>
0

> <s_m_subgroup_title>
enumerate_138-out

> <s_m_subgroupid>
enumerate_138-out

$$$$
