21077-2
                    3D
 Schrodinger Suite 2024-3.
 54 55  0  0  1  0            999 V2000
   76.7152   51.2564   42.5117 C   0  0  0  0  0  0
   75.6469   51.8672   41.7091 C   0  0  0  0  0  0
   74.7156   52.5958   42.3599 C   0  0  0  0  0  0
   74.7624   52.7581   43.7471 N   0  0  0  0  0  0
   75.7023   52.2182   44.5484 C   0  0  0  0  0  0
   75.6665   52.3767   45.7684 O   0  0  0  0  0  0
   76.7303   51.4438   43.8559 C   0  0  0  0  0  0
   77.7066   50.8711   44.7216 C   0  0  0  0  0  0
   78.4723   50.4247   45.4646 N   0  0  0  0  0  0
   73.5301   53.2752   41.6754 C   0  0  2  0  0  0
   73.5536   53.2080   40.1403 C   0  0  0  0  0  0
   74.1629   51.9154   39.6394 N   0  0  0  0  0  0
   75.5862   51.7783   40.1806 C   0  0  0  0  0  0
   72.6664   52.6907   41.9933 H   0  0  0  0  0  0
   72.5491   53.3463   39.7375 H   0  0  0  0  0  0
   74.1721   53.9906   39.7152 H   0  0  0  0  0  0
   76.2138   52.5768   39.7810 H   0  0  0  0  0  0
   75.9881   50.8598   39.7711 H   0  0  0  0  0  0
   74.0228   53.3179   44.1572 H   0  0  0  0  0  0
   78.2659   50.0552   41.5379 R   0  0  0  0  0  0
   73.6060   51.1349   39.9569 H   0  0  0  0  0  0
   74.2330   64.4078   44.1177 C   0  0  0  0  0  0
   74.2969   62.9676   43.7033 C   0  0  0  0  0  0
   73.0751   62.6224   42.9046 C   0  0  0  0  0  0
   73.1391   61.1822   42.4903 C   0  0  0  0  0  0
   71.9172   60.8370   41.6916 C   0  0  0  0  0  0
   71.9812   59.3967   41.2772 C   0  0  0  0  0  0
   72.0426   58.5274   42.4981 C   0  0  0  0  0  0
   72.1066   57.0872   42.0837 C   0  0  0  0  0  0
   72.1680   56.2179   43.3046 C   0  0  2  0  0  0
   73.2921   56.5355   44.0393 O   0  0  0  0  0  0
   72.2319   54.7777   42.8902 C   0  0  0  0  0  0
   73.3584   54.5701   42.1205 O   0  0  0  0  0  0
   75.1208   64.6587   44.6981 H   0  0  0  0  0  0
   74.1883   65.0395   43.2305 H   0  0  0  0  0  0
   73.3432   64.5718   44.7256 H   0  0  0  0  0  0
   74.3415   62.3359   44.5905 H   0  0  0  0  0  0
   75.1867   62.8036   43.0954 H   0  0  0  0  0  0
   73.0305   63.2541   42.0175 H   0  0  0  0  0  0
   72.1853   62.7864   43.5126 H   0  0  0  0  0  0
   73.1837   60.5505   43.3774 H   0  0  0  0  0  0
   74.0288   61.0182   41.8824 H   0  0  0  0  0  0
   71.8726   61.4686   40.8044 H   0  0  0  0  0  0
   71.0275   61.0009   42.2995 H   0  0  0  0  0  0
   72.8709   59.2328   40.6693 H   0  0  0  0  0  0
   71.0933   59.1459   40.6968 H   0  0  0  0  0  0
   71.1528   58.6914   43.1060 H   0  0  0  0  0  0
   72.9305   58.7783   43.0784 H   0  0  0  0  0  0
   72.9963   56.9233   41.4758 H   0  0  0  0  0  0
   71.2187   56.8364   41.5033 H   0  0  0  0  0  0
   71.2782   56.3819   43.9125 H   0  0  0  0  0  0
   71.3441   54.5268   42.3098 H   0  0  0  0  0  0
   72.2766   54.1460   43.7773 H   0  0  0  0  0  0
   74.1600   56.4144   43.5576 H   0  0  0  0  0  0
  1  2  1  0  0  0
  1  7  2  0  0  0
  1 20  1  0  0  0
  2  3  2  0  0  0
  2 13  1  0  0  0
  3  4  1  0  0  0
  3 10  1  0  0  0
  4  5  1  0  0  0
  4 19  1  0  0  0
  5  6  2  0  0  0
  5  7  1  0  0  0
  7  8  1  0  0  0
  8  9  3  0  0  0
 10 11  1  0  0  0
 10 14  1  0  0  0
 10 33  1  0  0  0
 11 12  1  0  0  0
 11 15  1  0  0  0
 11 16  1  0  0  0
 12 13  1  0  0  0
 12 21  1  0  0  0
 13 17  1  0  0  0
 13 18  1  0  0  0
 22 23  1  0  0  0
 22 34  1  0  0  0
 22 35  1  0  0  0
 22 36  1  0  0  0
 23 24  1  0  0  0
 23 37  1  0  0  0
 23 38  1  0  0  0
 24 25  1  0  0  0
 24 39  1  0  0  0
 24 40  1  0  0  0
 25 26  1  0  0  0
 25 41  1  0  0  0
 25 42  1  0  0  0
 26 27  1  0  0  0
 26 43  1  0  0  0
 26 44  1  0  0  0
 27 28  1  0  0  0
 27 45  1  0  0  0
 27 46  1  0  0  0
 28 29  1  0  0  0
 28 47  1  0  0  0
 28 48  1  0  0  0
 29 30  1  0  0  0
 29 49  1  0  0  0
 29 50  1  0  0  0
 30 31  1  0  0  0
 30 32  1  0  0  0
 30 51  1  0  0  0
 31 54  1  0  0  0
 32 33  1  0  0  0
 32 52  1  0  0  0
 32 53  1  0  0  0
M  END
> <b_m_subgroup_collapsed>
0

> <s_m_subgroup_title>
enumerate_138-out

> <s_m_subgroupid>
enumerate_138-out

$$$$
