3957-2
                    3D
 Schrodinger Suite 2024-3.
 39 42  0  0  1  0            999 V2000
   76.7152   51.2564   42.5117 C   0  0  0  0  0  0
   75.6469   51.8672   41.7091 C   0  0  0  0  0  0
   74.7156   52.5958   42.3599 C   0  0  0  0  0  0
   74.7624   52.7581   43.7471 N   0  0  0  0  0  0
   75.7023   52.2182   44.5484 C   0  0  0  0  0  0
   75.6665   52.3767   45.7684 O   0  0  0  0  0  0
   76.7303   51.4438   43.8559 C   0  0  0  0  0  0
   77.7066   50.8711   44.7216 C   0  0  0  0  0  0
   78.4723   50.4247   45.4646 N   0  0  0  0  0  0
   73.5301   53.2752   41.6754 C   0  0  2  0  0  0
   73.5536   53.2080   40.1403 C   0  0  0  0  0  0
   74.1629   51.9154   39.6394 N   0  0  0  0  0  0
   75.5862   51.7783   40.1806 C   0  0  0  0  0  0
   72.6664   52.6907   41.9933 H   0  0  0  0  0  0
   72.5491   53.3463   39.7375 H   0  0  0  0  0  0
   74.1721   53.9906   39.7152 H   0  0  0  0  0  0
   76.2138   52.5768   39.7810 H   0  0  0  0  0  0
   75.9881   50.8598   39.7711 H   0  0  0  0  0  0
   74.0228   53.3179   44.1572 H   0  0  0  0  0  0
   78.2659   50.0552   41.5379 R   0  0  0  0  0  0
   73.6060   51.1349   39.9569 H   0  0  0  0  0  0
   73.3435   54.6827   42.1592 C   0  0  1  0  0  0
   74.4454   55.6003   41.5952 C   0  0  0  0  0  0
   73.6453   56.6200   40.7638 C   0  0  2  0  0  0
   72.8765   57.5571   41.7136 C   0  0  0  0  0  0
   71.7744   56.6394   42.2775 C   0  0  0  0  0  0
   72.0579   55.2981   41.5763 C   0  0  1  0  0  0
   72.5241   55.7553   40.1989 C   0  0  0  0  0  0
   73.3357   54.6618   43.2498 H   0  0  0  0  0  0
   75.0342   56.0764   42.3803 H   0  0  0  0  0  0
   75.1300   55.0338   40.9624 H   0  0  0  0  0  0
   74.2445   57.1456   40.0191 H   0  0  0  0  0  0
   73.5154   57.9705   42.4950 H   0  0  0  0  0  0
   72.4375   58.3919   41.1655 H   0  0  0  0  0  0
   70.7865   57.0171   42.0099 H   0  0  0  0  0  0
   71.8162   56.5563   43.3642 H   0  0  0  0  0  0
   71.2068   54.6157   41.5741 H   0  0  0  0  0  0
   72.8814   54.9388   39.5686 H   0  0  0  0  0  0
   71.7700   56.3251   39.6527 H   0  0  0  0  0  0
  1  2  1  0  0  0
  1  7  2  0  0  0
  1 20  1  0  0  0
  2  3  2  0  0  0
  2 13  1  0  0  0
  3  4  1  0  0  0
  3 10  1  0  0  0
  4  5  1  0  0  0
  4 19  1  0  0  0
  5  6  2  0  0  0
  5  7  1  0  0  0
  7  8  1  0  0  0
  8  9  3  0  0  0
 10 11  1  0  0  0
 10 14  1  0  0  0
 10 22  1  0  0  0
 11 12  1  0  0  0
 11 15  1  0  0  0
 11 16  1  0  0  0
 12 13  1  0  0  0
 12 21  1  0  0  0
 13 17  1  0  0  0
 13 18  1  0  0  0
 22 23  1  0  0  0
 22 27  1  0  0  0
 22 29  1  0  0  0
 23 24  1  0  0  0
 23 30  1  0  0  0
 23 31  1  0  0  0
 24 25  1  0  0  0
 24 28  1  0  0  0
 24 32  1  0  0  0
 25 26  1  0  0  0
 25 33  1  0  0  0
 25 34  1  0  0  0
 26 27  1  0  0  0
 26 35  1  0  0  0
 26 36  1  0  0  0
 27 28  1  0  0  0
 27 37  1  0  0  0
 28 38  1  0  0  0
 28 39  1  0  0  0
M  END
> <b_m_subgroup_collapsed>
1

> <s_m_subgroup_title>
enumerate_137-out

> <s_m_subgroupid>
enumerate_137-out

$$$$
