6760-1
                    3D
 Schrodinger Suite 2024-3.
 47 51  0  0  1  0            999 V2000
   76.7152   51.2564   42.5117 C   0  0  0  0  0  0
   75.6469   51.8672   41.7091 C   0  0  0  0  0  0
   74.7156   52.5958   42.3599 C   0  0  0  0  0  0
   74.7624   52.7581   43.7471 N   0  0  0  0  0  0
   75.7023   52.2182   44.5484 C   0  0  0  0  0  0
   75.6665   52.3767   45.7684 O   0  0  0  0  0  0
   76.7303   51.4438   43.8559 C   0  0  0  0  0  0
   77.7066   50.8711   44.7216 C   0  0  0  0  0  0
   78.4723   50.4247   45.4646 N   0  0  0  0  0  0
   73.5301   53.2752   41.6754 C   0  0  2  0  0  0
   73.5536   53.2080   40.1403 C   0  0  0  0  0  0
   74.1629   51.9154   39.6394 N   0  0  0  0  0  0
   75.5862   51.7783   40.1806 C   0  0  0  0  0  0
   72.6664   52.6907   41.9933 H   0  0  0  0  0  0
   72.5491   53.3463   39.7375 H   0  0  0  0  0  0
   74.1721   53.9906   39.7152 H   0  0  0  0  0  0
   76.2138   52.5768   39.7810 H   0  0  0  0  0  0
   75.9881   50.8598   39.7711 H   0  0  0  0  0  0
   74.0228   53.3179   44.1572 H   0  0  0  0  0  0
   78.2659   50.0552   41.5379 R   0  0  0  0  0  0
   73.6060   51.1349   39.9569 H   0  0  0  0  0  0
   73.3584   54.5701   42.1205 O   0  0  0  0  0  0
   72.2319   54.7777   42.8902 C   0  0  0  0  0  0
   72.6505   55.2881   44.2865 C   0  0  0  0  0  0
   71.3893   55.5202   45.1472 C   0  0  1  0  0  0
   70.4859   56.5710   44.4652 C   0  0  0  0  0  0
   70.0687   56.0599   43.0686 C   0  0  2  0  0  0
   69.2931   54.7325   43.2156 C   0  0  0  0  0  0
   70.1972   53.6830   43.8986 C   0  0  2  0  0  0
   70.6142   54.1925   45.2956 C   0  0  0  0  0  0
   71.4578   53.4493   43.0374 C   0  0  0  0  0  0
   71.3290   55.8279   42.2066 C   0  0  0  0  0  0
   73.3107   54.5670   44.7704 H   0  0  0  0  0  0
   73.2213   56.2131   44.1954 H   0  0  0  0  0  0
   71.6843   55.8805   46.1335 H   0  0  0  0  0  0
   71.0123   57.5223   44.3778 H   0  0  0  0  0  0
   69.6032   56.7640   45.0763 H   0  0  0  0  0  0
   69.4307   56.8016   42.5865 H   0  0  0  0  0  0
   68.3857   54.8878   43.8008 H   0  0  0  0  0  0
   68.9694   54.3736   42.2378 H   0  0  0  0  0  0
   69.6499   52.7453   44.0028 H   0  0  0  0  0  0
   71.2320   53.4486   45.8004 H   0  0  0  0  0  0
   69.7340   54.3371   45.9233 H   0  0  0  0  0  0
   71.1788   53.0635   42.0559 H   0  0  0  0  0  0
   72.0931   52.6903   43.4957 H   0  0  0  0  0  0
   71.8726   56.7640   42.0723 H   0  0  0  0  0  0
   71.0470   55.4912   41.2081 H   0  0  0  0  0  0
  1  2  1  0  0  0
  1  7  2  0  0  0
  1 20  1  0  0  0
  2  3  2  0  0  0
  2 13  1  0  0  0
  3  4  1  0  0  0
  3 10  1  0  0  0
  4  5  1  0  0  0
  4 19  1  0  0  0
  5  6  2  0  0  0
  5  7  1  0  0  0
  7  8  1  0  0  0
  8  9  3  0  0  0
 10 11  1  0  0  0
 10 14  1  0  0  0
 10 22  1  0  0  0
 11 12  1  0  0  0
 11 15  1  0  0  0
 11 16  1  0  0  0
 12 13  1  0  0  0
 12 21  1  0  0  0
 13 17  1  0  0  0
 13 18  1  0  0  0
 22 23  1  0  0  0
 23 24  1  0  0  0
 23 31  1  0  0  0
 23 32  1  0  0  0
 24 25  1  0  0  0
 24 33  1  0  0  0
 24 34  1  0  0  0
 25 26  1  0  0  0
 25 30  1  0  0  0
 25 35  1  0  0  0
 26 27  1  0  0  0
 26 36  1  0  0  0
 26 37  1  0  0  0
 27 28  1  0  0  0
 27 32  1  0  0  0
 27 38  1  0  0  0
 28 29  1  0  0  0
 28 39  1  0  0  0
 28 40  1  0  0  0
 29 30  1  0  0  0
 29 31  1  0  0  0
 29 41  1  0  0  0
 30 42  1  0  0  0
 30 43  1  0  0  0
 31 44  1  0  0  0
 31 45  1  0  0  0
 32 46  1  0  0  0
 32 47  1  0  0  0
M  END
> <b_m_subgroup_collapsed>
1

> <s_m_subgroup_title>
enumerate_137-out

> <s_m_subgroupid>
enumerate_137-out

$$$$
