24554-1
                    3D
 Schrodinger Suite 2024-3.
 43 45  0  0  1  0            999 V2000
   76.7152   51.2564   42.5117 C   0  0  0  0  0  0
   75.6469   51.8672   41.7091 C   0  0  0  0  0  0
   74.7156   52.5958   42.3599 C   0  0  0  0  0  0
   74.7624   52.7581   43.7471 N   0  0  0  0  0  0
   75.7023   52.2182   44.5484 C   0  0  0  0  0  0
   75.6665   52.3767   45.7684 O   0  0  0  0  0  0
   76.7303   51.4438   43.8559 C   0  0  0  0  0  0
   77.7066   50.8711   44.7216 C   0  0  0  0  0  0
   78.4723   50.4247   45.4646 N   0  0  0  0  0  0
   73.5301   53.2752   41.6754 C   0  0  2  0  0  0
   73.5536   53.2080   40.1403 C   0  0  0  0  0  0
   74.1629   51.9154   39.6394 N   0  0  0  0  0  0
   75.5862   51.7783   40.1806 C   0  0  0  0  0  0
   72.6664   52.6907   41.9933 H   0  0  0  0  0  0
   72.5491   53.3463   39.7375 H   0  0  0  0  0  0
   74.1721   53.9906   39.7152 H   0  0  0  0  0  0
   76.2138   52.5768   39.7810 H   0  0  0  0  0  0
   75.9881   50.8598   39.7711 H   0  0  0  0  0  0
   74.0228   53.3179   44.1572 H   0  0  0  0  0  0
   78.2659   50.0552   41.5379 R   0  0  0  0  0  0
   73.6060   51.1349   39.9569 H   0  0  0  0  0  0
   73.3584   54.5701   42.1205 O   0  0  0  0  0  0
   72.2319   54.7777   42.8902 C   0  0  2  0  0  0
   71.0101   54.4325   42.0915 C   0  0  0  0  0  0
   72.1680   56.2179   43.3046 C   0  0  0  0  0  0
   70.9066   56.4860   44.1427 C   0  0  0  0  0  0
   70.9041   57.9172   44.7135 C   0  0  0  0  0  0
   72.1069   58.1483   45.4530 O   0  0  0  0  0  0
   73.3031   58.0344   44.6763 C   0  0  0  0  0  0
   73.4225   56.6090   44.1037 C   0  0  0  0  0  0
   72.2766   54.1460   43.7773 H   0  0  0  0  0  0
   70.1203   54.5965   42.6994 H   0  0  0  0  0  0
   70.9655   55.0642   41.2043 H   0  0  0  0  0  0
   71.0566   53.3859   41.7904 H   0  0  0  0  0  0
   72.1252   56.7994   42.3809 H   0  0  0  0  0  0
   70.0099   56.3206   43.5437 H   0  0  0  0  0  0
   70.8565   55.7741   44.9683 H   0  0  0  0  0  0
   70.8032   58.6554   43.9149 H   0  0  0  0  0  0
   70.0471   58.0575   45.3738 H   0  0  0  0  0  0
   73.3068   58.7778   43.8761 H   0  0  0  0  0  0
   74.1623   58.2586   45.3101 H   0  0  0  0  0  0
   73.5673   55.9066   44.9263 H   0  0  0  0  0  0
   74.3121   56.5309   43.4770 H   0  0  0  0  0  0
  1  2  1  0  0  0
  1  7  2  0  0  0
  1 20  1  0  0  0
  2  3  2  0  0  0
  2 13  1  0  0  0
  3  4  1  0  0  0
  3 10  1  0  0  0
  4  5  1  0  0  0
  4 19  1  0  0  0
  5  6  2  0  0  0
  5  7  1  0  0  0
  7  8  1  0  0  0
  8  9  3  0  0  0
 10 11  1  0  0  0
 10 14  1  0  0  0
 10 22  1  0  0  0
 11 12  1  0  0  0
 11 15  1  0  0  0
 11 16  1  0  0  0
 12 13  1  0  0  0
 12 21  1  0  0  0
 13 17  1  0  0  0
 13 18  1  0  0  0
 22 23  1  0  0  0
 23 24  1  0  0  0
 23 25  1  0  0  0
 23 31  1  0  0  0
 24 32  1  0  0  0
 24 33  1  0  0  0
 24 34  1  0  0  0
 25 26  1  0  0  0
 25 30  1  0  0  0
 25 35  1  0  0  0
 26 27  1  0  0  0
 26 36  1  0  0  0
 26 37  1  0  0  0
 27 28  1  0  0  0
 27 38  1  0  0  0
 27 39  1  0  0  0
 28 29  1  0  0  0
 29 30  1  0  0  0
 29 40  1  0  0  0
 29 41  1  0  0  0
 30 42  1  0  0  0
 30 43  1  0  0  0
M  END
> <b_m_subgroup_collapsed>
0

> <s_m_subgroup_title>
enumerate_138-out

> <s_m_subgroupid>
enumerate_138-out

$$$$
