36314-1
                    3D
 Schrodinger Suite 2024-3.
 40 43  0  0  1  0            999 V2000
   76.7152   51.2564   42.5117 C   0  0  0  0  0  0
   75.6469   51.8672   41.7091 C   0  0  0  0  0  0
   74.7156   52.5958   42.3599 C   0  0  0  0  0  0
   74.7624   52.7581   43.7471 N   0  0  0  0  0  0
   75.7023   52.2182   44.5484 C   0  0  0  0  0  0
   75.6665   52.3767   45.7684 O   0  0  0  0  0  0
   76.7303   51.4438   43.8559 C   0  0  0  0  0  0
   77.7066   50.8711   44.7216 C   0  0  0  0  0  0
   78.4723   50.4247   45.4646 N   0  0  0  0  0  0
   73.5301   53.2752   41.6754 C   0  0  2  0  0  0
   73.5536   53.2080   40.1403 C   0  0  0  0  0  0
   74.1629   51.9154   39.6394 N   0  0  0  0  0  0
   75.5862   51.7783   40.1806 C   0  0  0  0  0  0
   72.6664   52.6907   41.9933 H   0  0  0  0  0  0
   72.5491   53.3463   39.7375 H   0  0  0  0  0  0
   74.1721   53.9906   39.7152 H   0  0  0  0  0  0
   76.2138   52.5768   39.7810 H   0  0  0  0  0  0
   75.9881   50.8598   39.7711 H   0  0  0  0  0  0
   74.0228   53.3179   44.1572 H   0  0  0  0  0  0
   78.2659   50.0552   41.5379 R   0  0  0  0  0  0
   73.6060   51.1349   39.9569 H   0  0  0  0  0  0
   73.3435   54.6827   42.1592 C   0  0  0  0  0  0
   74.2492   55.4763   42.3974 O   0  0  0  0  0  0
   72.0543   54.9893   42.3073 N   0  0  0  0  0  0
   71.5356   56.2762   42.7616 C   0  0  2  0  0  0
   70.6910   56.1150   44.0263 C   0  0  0  0  0  0
   69.6523   57.2355   43.9599 C   0  0  0  0  0  0
   69.4331   57.5150   42.4658 C   0  0  1  0  0  0
   70.4570   58.4195   41.8137 C   0  0  0  0  0  0
   70.6085   56.9163   41.7179 C   0  0  1  0  0  0
   72.4018   56.9145   42.9485 H   0  0  0  0  0  0
   70.1832   55.1484   44.0021 H   0  0  0  0  0  0
   71.2866   56.1425   44.9404 H   0  0  0  0  0  0
   68.7255   56.9431   44.4568 H   0  0  0  0  0  0
   70.0112   58.1322   44.4695 H   0  0  0  0  0  0
   68.4154   57.4346   42.0746 H   0  0  0  0  0  0
   70.1678   58.9714   40.9174 H   0  0  0  0  0  0
   71.1460   58.9939   42.4369 H   0  0  0  0  0  0
   70.4656   56.3904   40.7702 H   0  0  0  0  0  0
   71.2790   54.3687   42.1233 H   0  0  0  0  0  0
  1  2  1  0  0  0
  1  7  2  0  0  0
  1 20  1  0  0  0
  2  3  2  0  0  0
  2 13  1  0  0  0
  3  4  1  0  0  0
  3 10  1  0  0  0
  4  5  1  0  0  0
  4 19  1  0  0  0
  5  6  2  0  0  0
  5  7  1  0  0  0
  7  8  1  0  0  0
  8  9  3  0  0  0
 10 11  1  0  0  0
 10 14  1  0  0  0
 10 22  1  0  0  0
 11 12  1  0  0  0
 11 15  1  0  0  0
 11 16  1  0  0  0
 12 13  1  0  0  0
 12 21  1  0  0  0
 13 17  1  0  0  0
 13 18  1  0  0  0
 22 23  2  0  0  0
 22 24  1  0  0  0
 24 25  1  0  0  0
 24 40  1  0  0  0
 25 26  1  0  0  0
 25 30  1  0  0  0
 25 31  1  0  0  0
 26 27  1  0  0  0
 26 32  1  0  0  0
 26 33  1  0  0  0
 27 28  1  0  0  0
 27 34  1  0  0  0
 27 35  1  0  0  0
 28 29  1  0  0  0
 28 30  1  0  0  0
 28 36  1  0  0  0
 29 30  1  0  0  0
 29 37  1  0  0  0
 29 38  1  0  0  0
 30 39  1  0  0  0
M  END
> <b_m_subgroup_collapsed>
1

> <s_m_subgroup_title>
enumerate_137-out

> <s_m_subgroupid>
enumerate_137-out

$$$$
