1391-1
                    3D
 Schrodinger Suite 2024-3.
 40 41  0  0  1  0            999 V2000
   76.7152   51.2564   42.5117 C   0  0  0  0  0  0
   75.6469   51.8672   41.7091 C   0  0  0  0  0  0
   74.7156   52.5958   42.3599 C   0  0  0  0  0  0
   74.7624   52.7581   43.7471 N   0  0  0  0  0  0
   75.7023   52.2182   44.5484 C   0  0  0  0  0  0
   75.6665   52.3767   45.7684 O   0  0  0  0  0  0
   76.7303   51.4438   43.8559 C   0  0  0  0  0  0
   77.7066   50.8711   44.7216 C   0  0  0  0  0  0
   78.4723   50.4247   45.4646 N   0  0  0  0  0  0
   73.5301   53.2752   41.6754 C   0  0  2  0  0  0
   73.5536   53.2080   40.1403 C   0  0  0  0  0  0
   74.1629   51.9154   39.6394 N   0  0  0  0  0  0
   75.5862   51.7783   40.1806 C   0  0  0  0  0  0
   72.6664   52.6907   41.9933 H   0  0  0  0  0  0
   72.5491   53.3463   39.7375 H   0  0  0  0  0  0
   74.1721   53.9906   39.7152 H   0  0  0  0  0  0
   76.2138   52.5768   39.7810 H   0  0  0  0  0  0
   75.9881   50.8598   39.7711 H   0  0  0  0  0  0
   74.0228   53.3179   44.1572 H   0  0  0  0  0  0
   78.2659   50.0552   41.5379 R   0  0  0  0  0  0
   73.6060   51.1349   39.9569 H   0  0  0  0  0  0
   73.3435   54.6827   42.1592 C   0  0  0  0  0  0
   72.0438   55.2219   41.6395 C   0  0  0  0  0  0
   71.8572   56.6294   42.1233 C   0  0  0  0  0  0
   71.8473   56.5911   43.6613 C   0  0  0  0  0  0
   70.5155   57.1349   41.5654 C   0  0  0  0  0  0
   73.0365   57.4608   41.5897 C   0  0  0  0  0  0
   74.1642   55.3027   41.7986 H   0  0  0  0  0  0
   73.3315   54.6937   43.2491 H   0  0  0  0  0  0
   71.2230   54.6019   42.0001 H   0  0  0  0  0  0
   72.0557   55.2109   40.5496 H   0  0  0  0  0  0
   71.7144   57.5874   44.0848 H   0  0  0  0  0  0
   72.7816   56.1870   44.0527 H   0  0  0  0  0  0
   71.0391   55.9618   44.0359 H   0  0  0  0  0  0
   70.5083   57.1155   40.4750 H   0  0  0  0  0  0
   69.6863   56.5143   41.9069 H   0  0  0  0  0  0
   70.3131   58.1597   41.8795 H   0  0  0  0  0  0
   73.0692   57.4465   40.4997 H   0  0  0  0  0  0
   72.9657   58.5027   41.9051 H   0  0  0  0  0  0
   73.9897   57.0706   41.9484 H   0  0  0  0  0  0
  1  2  1  0  0  0
  1  7  2  0  0  0
  1 20  1  0  0  0
  2  3  2  0  0  0
  2 13  1  0  0  0
  3  4  1  0  0  0
  3 10  1  0  0  0
  4  5  1  0  0  0
  4 19  1  0  0  0
  5  6  2  0  0  0
  5  7  1  0  0  0
  7  8  1  0  0  0
  8  9  3  0  0  0
 10 11  1  0  0  0
 10 14  1  0  0  0
 10 22  1  0  0  0
 11 12  1  0  0  0
 11 15  1  0  0  0
 11 16  1  0  0  0
 12 13  1  0  0  0
 12 21  1  0  0  0
 13 17  1  0  0  0
 13 18  1  0  0  0
 22 23  1  0  0  0
 22 28  1  0  0  0
 22 29  1  0  0  0
 23 24  1  0  0  0
 23 30  1  0  0  0
 23 31  1  0  0  0
 24 25  1  0  0  0
 24 26  1  0  0  0
 24 27  1  0  0  0
 25 32  1  0  0  0
 25 33  1  0  0  0
 25 34  1  0  0  0
 26 35  1  0  0  0
 26 36  1  0  0  0
 26 37  1  0  0  0
 27 38  1  0  0  0
 27 39  1  0  0  0
 27 40  1  0  0  0
M  END
> <b_m_subgroup_collapsed>
1

> <s_m_subgroup_title>
enumerate_137-out

> <s_m_subgroupid>
enumerate_137-out

$$$$
