41329-3
                    3D
 Schrodinger Suite 2024-3.
 44 46  0  0  1  0            999 V2000
   76.7152   51.2564   42.5117 C   0  0  0  0  0  0
   75.6469   51.8672   41.7091 C   0  0  0  0  0  0
   74.7156   52.5958   42.3599 C   0  0  0  0  0  0
   74.7624   52.7581   43.7471 N   0  0  0  0  0  0
   75.7023   52.2182   44.5484 C   0  0  0  0  0  0
   75.6665   52.3767   45.7684 O   0  0  0  0  0  0
   76.7303   51.4438   43.8559 C   0  0  0  0  0  0
   77.7066   50.8711   44.7216 C   0  0  0  0  0  0
   78.4723   50.4247   45.4646 N   0  0  0  0  0  0
   73.5301   53.2752   41.6754 C   0  0  2  0  0  0
   73.5536   53.2080   40.1403 C   0  0  0  0  0  0
   74.1629   51.9154   39.6394 N   0  0  0  0  0  0
   75.5862   51.7783   40.1806 C   0  0  0  0  0  0
   72.6664   52.6907   41.9933 H   0  0  0  0  0  0
   72.5491   53.3463   39.7375 H   0  0  0  0  0  0
   74.1721   53.9906   39.7152 H   0  0  0  0  0  0
   76.2138   52.5768   39.7810 H   0  0  0  0  0  0
   75.9881   50.8598   39.7711 H   0  0  0  0  0  0
   74.0228   53.3179   44.1572 H   0  0  0  0  0  0
   78.2659   50.0552   41.5379 R   0  0  0  0  0  0
   73.6060   51.1349   39.9569 H   0  0  0  0  0  0
   73.3435   54.6827   42.1592 C   0  0  1  0  0  0
   74.4145   55.6300   41.6329 C   0  0  0  0  0  0
   73.7040   56.9623   41.6990 C   0  0  2  0  0  0
   74.2917   57.9351   40.9164 O   0  0  0  0  0  0
   73.6573   57.4736   43.1084 C   0  0  0  0  0  0
   74.9402   57.7306   43.5472 O   0  0  0  0  0  0
   72.3035   56.5930   41.2245 C   0  0  0  0  0  0
   72.2215   56.6075   39.7268 C   0  0  0  0  0  0
   71.2532   57.5250   41.7521 C   0  0  0  0  0  0
   72.1140   55.2516   41.6923 O   0  0  0  0  0  0
   73.3392   54.6638   43.2510 H   0  0  0  0  0  0
   75.3310   55.5987   42.2243 H   0  0  0  0  0  0
   74.6723   55.3761   40.6025 H   0  0  0  0  0  0
   73.0709   58.3918   43.1425 H   0  0  0  0  0  0
   73.1966   56.7240   43.7518 H   0  0  0  0  0  0
   72.3649   57.6257   39.3649 H   0  0  0  0  0  0
   72.9974   55.9626   39.3142 H   0  0  0  0  0  0
   71.2427   56.2449   39.4130 H   0  0  0  0  0  0
   71.4356   58.5303   41.3723 H   0  0  0  0  0  0
   70.2698   57.1863   41.4258 H   0  0  0  0  0  0
   71.2909   57.5357   42.8413 H   0  0  0  0  0  0
   73.8409   58.8274   40.9418 H   0  0  0  0  0  0
   75.0053   58.0774   44.4829 H   0  0  0  0  0  0
  1  2  1  0  0  0
  1  7  2  0  0  0
  1 20  1  0  0  0
  2  3  2  0  0  0
  2 13  1  0  0  0
  3  4  1  0  0  0
  3 10  1  0  0  0
  4  5  1  0  0  0
  4 19  1  0  0  0
  5  6  2  0  0  0
  5  7  1  0  0  0
  7  8  1  0  0  0
  8  9  3  0  0  0
 10 11  1  0  0  0
 10 14  1  0  0  0
 10 22  1  0  0  0
 11 12  1  0  0  0
 11 15  1  0  0  0
 11 16  1  0  0  0
 12 13  1  0  0  0
 12 21  1  0  0  0
 13 17  1  0  0  0
 13 18  1  0  0  0
 22 23  1  0  0  0
 22 31  1  0  0  0
 22 32  1  0  0  0
 23 24  1  0  0  0
 23 33  1  0  0  0
 23 34  1  0  0  0
 24 25  1  0  0  0
 24 26  1  0  0  0
 24 28  1  0  0  0
 25 43  1  0  0  0
 26 27  1  0  0  0
 26 35  1  0  0  0
 26 36  1  0  0  0
 27 44  1  0  0  0
 28 29  1  0  0  0
 28 30  1  0  0  0
 28 31  1  0  0  0
 29 37  1  0  0  0
 29 38  1  0  0  0
 29 39  1  0  0  0
 30 40  1  0  0  0
 30 41  1  0  0  0
 30 42  1  0  0  0
M  END
> <b_m_subgroup_collapsed>
0

> <s_m_subgroup_title>
enumerate_138-out

> <s_m_subgroupid>
enumerate_138-out

$$$$
