9786-4
                    3D
 Schrodinger Suite 2024-3.
 49 52  0  0  1  0            999 V2000
   76.7152   51.2564   42.5117 C   0  0  0  0  0  0
   75.6469   51.8672   41.7091 C   0  0  0  0  0  0
   74.7156   52.5958   42.3599 C   0  0  0  0  0  0
   74.7624   52.7581   43.7471 N   0  0  0  0  0  0
   75.7023   52.2182   44.5484 C   0  0  0  0  0  0
   75.6665   52.3767   45.7684 O   0  0  0  0  0  0
   76.7303   51.4438   43.8559 C   0  0  0  0  0  0
   77.7066   50.8711   44.7216 C   0  0  0  0  0  0
   78.4723   50.4247   45.4646 N   0  0  0  0  0  0
   73.5301   53.2752   41.6754 C   0  0  2  0  0  0
   73.5536   53.2080   40.1403 C   0  0  0  0  0  0
   74.1629   51.9154   39.6394 N   0  0  0  0  0  0
   75.5862   51.7783   40.1806 C   0  0  0  0  0  0
   72.6664   52.6907   41.9933 H   0  0  0  0  0  0
   72.5491   53.3463   39.7375 H   0  0  0  0  0  0
   74.1721   53.9906   39.7152 H   0  0  0  0  0  0
   76.2138   52.5768   39.7810 H   0  0  0  0  0  0
   75.9881   50.8598   39.7711 H   0  0  0  0  0  0
   74.0228   53.3179   44.1572 H   0  0  0  0  0  0
   78.2659   50.0552   41.5379 R   0  0  0  0  0  0
   73.6060   51.1349   39.9569 H   0  0  0  0  0  0
   73.3435   54.6827   42.1592 C   0  0  2  0  0  0
   72.0308   55.2699   41.6145 C   0  0  0  0  0  0
   72.3907   56.6561   41.0743 C   0  0  0  0  0  0
   73.8328   56.4978   40.5963 C   0  0  0  0  0  0
   74.4720   55.5986   41.6572 C   0  0  2  0  0  0
   75.5503   54.8921   41.1647 O   0  0  0  0  0  0
   76.7476   55.1322   41.8075 C   0  0  0  0  0  0
   77.2187   56.5194   41.4852 C   0  0  0  0  0  0
   76.8394   57.5868   42.2904 C   0  0  0  0  0  0
   77.2759   58.8720   41.9917 C   0  0  0  0  0  0
   78.0917   59.0899   40.8878 C   0  0  0  0  0  0
   78.4711   58.0225   40.0827 C   0  0  0  0  0  0
   78.0346   56.7372   40.3813 C   0  0  0  0  0  0
   73.3378   54.6451   43.2503 H   0  0  0  0  0  0
   71.6593   54.6452   40.7994 H   0  0  0  0  0  0
   71.2437   55.3111   42.3696 H   0  0  0  0  0  0
   72.3431   57.3949   41.8772 H   0  0  0  0  0  0
   71.7166   56.9897   40.2833 H   0  0  0  0  0  0
   74.3492   57.4529   40.4848 H   0  0  0  0  0  0
   73.8510   56.0011   39.6238 H   0  0  0  0  0  0
   74.8415   56.2121   42.4817 H   0  0  0  0  0  0
   76.6074   55.0372   42.8843 H   0  0  0  0  0  0
   77.4912   54.4090   41.4727 H   0  0  0  0  0  0
   76.2041   57.4172   43.1498 H   0  0  0  0  0  0
   76.9805   59.7031   42.6186 H   0  0  0  0  0  0
   78.4316   60.0905   40.6553 H   0  0  0  0  0  0
   79.1063   58.1921   39.2232 H   0  0  0  0  0  0
   78.3300   55.9062   39.7544 H   0  0  0  0  0  0
  1  2  1  0  0  0
  1  7  2  0  0  0
  1 20  1  0  0  0
  2  3  2  0  0  0
  2 13  1  0  0  0
  3  4  1  0  0  0
  3 10  1  0  0  0
  4  5  1  0  0  0
  4 19  1  0  0  0
  5  6  2  0  0  0
  5  7  1  0  0  0
  7  8  1  0  0  0
  8  9  3  0  0  0
 10 11  1  0  0  0
 10 14  1  0  0  0
 10 22  1  0  0  0
 11 12  1  0  0  0
 11 15  1  0  0  0
 11 16  1  0  0  0
 12 13  1  0  0  0
 12 21  1  0  0  0
 13 17  1  0  0  0
 13 18  1  0  0  0
 22 23  1  0  0  0
 22 26  1  0  0  0
 22 35  1  0  0  0
 23 24  1  0  0  0
 23 36  1  0  0  0
 23 37  1  0  0  0
 24 25  1  0  0  0
 24 38  1  0  0  0
 24 39  1  0  0  0
 25 26  1  0  0  0
 25 40  1  0  0  0
 25 41  1  0  0  0
 26 27  1  0  0  0
 26 42  1  0  0  0
 27 28  1  0  0  0
 28 29  1  0  0  0
 28 43  1  0  0  0
 28 44  1  0  0  0
 29 30  2  0  0  0
 29 34  1  0  0  0
 30 31  1  0  0  0
 30 45  1  0  0  0
 31 32  2  0  0  0
 31 46  1  0  0  0
 32 33  1  0  0  0
 32 47  1  0  0  0
 33 34  2  0  0  0
 33 48  1  0  0  0
 34 49  1  0  0  0
M  END
> <b_m_subgroup_collapsed>
1

> <s_m_subgroup_title>
enumerate_137-out

> <s_m_subgroupid>
enumerate_137-out

$$$$
