41329-2
                    3D
 Schrodinger Suite 2024-3.
 44 46  0  0  1  0            999 V2000
   76.7152   51.2564   42.5117 C   0  0  0  0  0  0
   75.6469   51.8672   41.7091 C   0  0  0  0  0  0
   74.7156   52.5958   42.3599 C   0  0  0  0  0  0
   74.7624   52.7581   43.7471 N   0  0  0  0  0  0
   75.7023   52.2182   44.5484 C   0  0  0  0  0  0
   75.6665   52.3767   45.7684 O   0  0  0  0  0  0
   76.7303   51.4438   43.8559 C   0  0  0  0  0  0
   77.7066   50.8711   44.7216 C   0  0  0  0  0  0
   78.4723   50.4247   45.4646 N   0  0  0  0  0  0
   73.5301   53.2752   41.6754 C   0  0  2  0  0  0
   73.5536   53.2080   40.1403 C   0  0  0  0  0  0
   74.1629   51.9154   39.6394 N   0  0  0  0  0  0
   75.5862   51.7783   40.1806 C   0  0  0  0  0  0
   72.6664   52.6907   41.9933 H   0  0  0  0  0  0
   72.5491   53.3463   39.7375 H   0  0  0  0  0  0
   74.1721   53.9906   39.7152 H   0  0  0  0  0  0
   76.2138   52.5768   39.7810 H   0  0  0  0  0  0
   75.9881   50.8598   39.7711 H   0  0  0  0  0  0
   74.0228   53.3179   44.1572 H   0  0  0  0  0  0
   78.2659   50.0552   41.5379 R   0  0  0  0  0  0
   73.6060   51.1349   39.9569 H   0  0  0  0  0  0
   73.3435   54.6827   42.1592 C   0  0  2  0  0  0
   72.0486   54.8660   42.9415 C   0  0  0  0  0  0
   71.7764   56.3396   42.7457 C   0  0  1  0  0  0
   70.4688   56.6939   43.0081 O   0  0  0  0  0  0
   72.6626   57.1690   43.6270 C   0  0  0  0  0  0
   72.3563   56.9226   44.9499 O   0  0  0  0  0  0
   72.1554   56.5332   41.2825 C   0  0  0  0  0  0
   72.5551   57.9454   40.9727 C   0  0  0  0  0  0
   71.0150   56.1691   40.3787 C   0  0  0  0  0  0
   73.2337   55.6127   41.0743 O   0  0  0  0  0  0
   74.2101   54.9446   42.7696 H   0  0  0  0  0  0
   71.2520   54.2612   42.5027 H   0  0  0  0  0  0
   72.1463   54.5797   43.9900 H   0  0  0  0  0  0
   73.7050   56.9100   43.4411 H   0  0  0  0  0  0
   72.5062   58.2253   43.4086 H   0  0  0  0  0  0
   71.7075   58.6089   41.1444 H   0  0  0  0  0  0
   73.3827   58.2387   41.6186 H   0  0  0  0  0  0
   72.8655   58.0147   39.9302 H   0  0  0  0  0  0
   70.1918   56.8666   40.5333 H   0  0  0  0  0  0
   71.3438   56.2193   39.3407 H   0  0  0  0  0  0
   70.6807   55.1566   40.6053 H   0  0  0  0  0  0
   69.8753   55.9403   43.2907 H   0  0  0  0  0  0
   72.9015   57.4359   45.6126 H   0  0  0  0  0  0
  1  2  1  0  0  0
  1  7  2  0  0  0
  1 20  1  0  0  0
  2  3  2  0  0  0
  2 13  1  0  0  0
  3  4  1  0  0  0
  3 10  1  0  0  0
  4  5  1  0  0  0
  4 19  1  0  0  0
  5  6  2  0  0  0
  5  7  1  0  0  0
  7  8  1  0  0  0
  8  9  3  0  0  0
 10 11  1  0  0  0
 10 14  1  0  0  0
 10 22  1  0  0  0
 11 12  1  0  0  0
 11 15  1  0  0  0
 11 16  1  0  0  0
 12 13  1  0  0  0
 12 21  1  0  0  0
 13 17  1  0  0  0
 13 18  1  0  0  0
 22 23  1  0  0  0
 22 31  1  0  0  0
 22 32  1  0  0  0
 23 24  1  0  0  0
 23 33  1  0  0  0
 23 34  1  0  0  0
 24 25  1  0  0  0
 24 26  1  0  0  0
 24 28  1  0  0  0
 25 43  1  0  0  0
 26 27  1  0  0  0
 26 35  1  0  0  0
 26 36  1  0  0  0
 27 44  1  0  0  0
 28 29  1  0  0  0
 28 30  1  0  0  0
 28 31  1  0  0  0
 29 37  1  0  0  0
 29 38  1  0  0  0
 29 39  1  0  0  0
 30 40  1  0  0  0
 30 41  1  0  0  0
 30 42  1  0  0  0
M  END
> <b_m_subgroup_collapsed>
0

> <s_m_subgroup_title>
enumerate_138-out

> <s_m_subgroupid>
enumerate_138-out

$$$$
