10275-1
                    3D
 Schrodinger Suite 2024-3.
 38 41  0  0  1  0            999 V2000
   76.7152   51.2564   42.5117 C   0  0  0  0  0  0
   75.6469   51.8672   41.7091 C   0  0  0  0  0  0
   74.7156   52.5958   42.3599 C   0  0  0  0  0  0
   74.7624   52.7581   43.7471 N   0  0  0  0  0  0
   75.7023   52.2182   44.5484 C   0  0  0  0  0  0
   75.6665   52.3767   45.7684 O   0  0  0  0  0  0
   76.7303   51.4438   43.8559 C   0  0  0  0  0  0
   77.7066   50.8711   44.7216 C   0  0  0  0  0  0
   78.4723   50.4247   45.4646 N   0  0  0  0  0  0
   73.5301   53.2752   41.6754 C   0  0  2  0  0  0
   73.5536   53.2080   40.1403 C   0  0  0  0  0  0
   74.1629   51.9154   39.6394 N   0  0  0  0  0  0
   75.5862   51.7783   40.1806 C   0  0  0  0  0  0
   72.6664   52.6907   41.9933 H   0  0  0  0  0  0
   72.5491   53.3463   39.7375 H   0  0  0  0  0  0
   74.1721   53.9906   39.7152 H   0  0  0  0  0  0
   76.2138   52.5768   39.7810 H   0  0  0  0  0  0
   75.9881   50.8598   39.7711 H   0  0  0  0  0  0
   74.0228   53.3179   44.1572 H   0  0  0  0  0  0
   78.2659   50.0552   41.5379 R   0  0  0  0  0  0
   73.6060   51.1349   39.9569 H   0  0  0  0  0  0
   73.3435   54.6827   42.1592 C   0  0  2  0  0  0
   72.0397   55.2802   41.6281 C   0  0  1  0  0  0
   70.9528   54.9919   42.4280 O   0  0  0  0  0  0
   72.3068   56.7811   41.5069 C   0  0  2  0  0  0
   71.5637   57.3381   40.4862 O   0  0  0  0  0  0
   73.8153   56.9185   41.2528 C   0  0  1  0  0  0
   74.6931   56.8573   42.4847 C   0  0  0  0  0  0
   74.4622   55.6089   41.6600 C   0  0  1  0  0  0
   73.3384   54.6406   43.2504 H   0  0  0  0  0  0
   71.8292   54.8686   40.6386 H   0  0  0  0  0  0
   72.0226   57.3041   42.4224 H   0  0  0  0  0  0
   74.1357   57.4503   40.3530 H   0  0  0  0  0  0
   75.6757   57.3311   42.4473 H   0  0  0  0  0  0
   74.2412   56.9421   43.4754 H   0  0  0  0  0  0
   75.2641   55.1662   41.0633 H   0  0  0  0  0  0
   70.2170   54.4878   41.9758 H   0  0  0  0  0  0
   70.9438   58.0712   40.7661 H   0  0  0  0  0  0
  1  2  1  0  0  0
  1  7  2  0  0  0
  1 20  1  0  0  0
  2  3  2  0  0  0
  2 13  1  0  0  0
  3  4  1  0  0  0
  3 10  1  0  0  0
  4  5  1  0  0  0
  4 19  1  0  0  0
  5  6  2  0  0  0
  5  7  1  0  0  0
  7  8  1  0  0  0
  8  9  3  0  0  0
 10 11  1  0  0  0
 10 14  1  0  0  0
 10 22  1  0  0  0
 11 12  1  0  0  0
 11 15  1  0  0  0
 11 16  1  0  0  0
 12 13  1  0  0  0
 12 21  1  0  0  0
 13 17  1  0  0  0
 13 18  1  0  0  0
 22 23  1  0  0  0
 22 29  1  0  0  0
 22 30  1  0  0  0
 23 24  1  0  0  0
 23 25  1  0  0  0
 23 31  1  0  0  0
 24 37  1  0  0  0
 25 26  1  0  0  0
 25 27  1  0  0  0
 25 32  1  0  0  0
 26 38  1  0  0  0
 27 28  1  0  0  0
 27 29  1  0  0  0
 27 33  1  0  0  0
 28 29  1  0  0  0
 28 34  1  0  0  0
 28 35  1  0  0  0
 29 36  1  0  0  0
M  END
> <b_m_subgroup_collapsed>
1

> <s_m_subgroup_title>
enumerate_137-out

> <s_m_subgroupid>
enumerate_137-out

$$$$
