43315-1
                    3D
 Schrodinger Suite 2024-3.
 39 45  0  0  1  0            999 V2000
   76.7152   51.2564   42.5117 C   0  0  0  0  0  0
   75.6469   51.8672   41.7091 C   0  0  0  0  0  0
   74.7156   52.5958   42.3599 C   0  0  0  0  0  0
   74.7624   52.7581   43.7471 N   0  0  0  0  0  0
   75.7023   52.2182   44.5484 C   0  0  0  0  0  0
   75.6665   52.3767   45.7684 O   0  0  0  0  0  0
   76.7303   51.4438   43.8559 C   0  0  0  0  0  0
   77.7066   50.8711   44.7216 C   0  0  0  0  0  0
   78.4723   50.4247   45.4646 N   0  0  0  0  0  0
   73.5301   53.2752   41.6754 C   0  0  2  0  0  0
   73.5536   53.2080   40.1403 C   0  0  0  0  0  0
   74.1629   51.9154   39.6394 N   0  0  0  0  0  0
   75.5862   51.7783   40.1806 C   0  0  0  0  0  0
   72.6664   52.6907   41.9933 H   0  0  0  0  0  0
   72.5491   53.3463   39.7375 H   0  0  0  0  0  0
   74.1721   53.9906   39.7152 H   0  0  0  0  0  0
   76.2138   52.5768   39.7810 H   0  0  0  0  0  0
   75.9881   50.8598   39.7711 H   0  0  0  0  0  0
   74.0228   53.3179   44.1572 H   0  0  0  0  0  0
   78.2659   50.0552   41.5379 R   0  0  0  0  0  0
   73.6060   51.1349   39.9569 H   0  0  0  0  0  0
   73.3435   54.6827   42.1592 C   0  0  0  0  0  0
   74.4730   55.5359   41.6630 C   0  0  0  0  0  0
   76.1201   55.2794   42.0155 C   0  0  1  0  0  0
   76.4300   57.1661   41.7736 C   0  0  0  0  0  0
   76.5513   56.2891   40.9919 C   0  0  0  0  0  0
   76.2447   56.1208   42.8349 C   0  0  1  0  0  0
   74.5646   56.2628   42.5893 C   0  0  1  0  0  0
   74.9026   56.6286   40.7276 C   0  0  0  0  0  0
   74.7483   57.3909   41.6164 C   0  0  1  0  0  0
   72.3990   55.0745   41.7816 H   0  0  0  0  0  0
   73.3315   54.6937   43.2491 H   0  0  0  0  0  0
   76.7774   54.3789   42.0010 H   0  0  0  0  0  0
   77.2765   57.8491   42.0187 H   0  0  0  0  0  0
   77.3805   56.7045   40.4079 H   0  0  0  0  0  0
   76.7171   55.5171   43.6183 H   0  0  0  0  0  0
   73.7019   56.4493   43.2706 H   0  0  0  0  0  0
   74.2613   56.6592   39.8161 H   0  0  0  0  0  0
   74.2719   58.2026   41.0547 H   0  0  0  0  0  0
  1  2  1  0  0  0
  1  7  2  0  0  0
  1 20  1  0  0  0
  2  3  2  0  0  0
  2 13  1  0  0  0
  3  4  1  0  0  0
  3 10  1  0  0  0
  4  5  1  0  0  0
  4 19  1  0  0  0
  5  6  2  0  0  0
  5  7  1  0  0  0
  7  8  1  0  0  0
  8  9  3  0  0  0
 10 11  1  0  0  0
 10 14  1  0  0  0
 10 22  1  0  0  0
 11 12  1  0  0  0
 11 15  1  0  0  0
 11 16  1  0  0  0
 12 13  1  0  0  0
 12 21  1  0  0  0
 13 17  1  0  0  0
 13 18  1  0  0  0
 22 23  1  0  0  0
 22 31  1  0  0  0
 22 32  1  0  0  0
 23 24  1  0  0  0
 23 28  1  0  0  0
 23 30  1  0  0  0
 24 25  1  0  0  0
 24 27  1  0  0  0
 24 33  1  0  0  0
 25 26  1  0  0  0
 25 30  1  0  0  0
 25 34  1  0  0  0
 26 27  1  0  0  0
 26 29  1  0  0  0
 26 35  1  0  0  0
 27 28  1  0  0  0
 27 36  1  0  0  0
 28 29  1  0  0  0
 28 37  1  0  0  0
 29 30  1  0  0  0
 29 38  1  0  0  0
 30 39  1  0  0  0
M  END
> <b_m_subgroup_collapsed>
1

> <s_m_subgroup_title>
enumerate_137-out

> <s_m_subgroupid>
enumerate_137-out

$$$$
