11921-8
                    3D
 Schrodinger Suite 2024-3.
 45 48  0  0  1  0            999 V2000
   76.7152   51.2564   42.5117 C   0  0  0  0  0  0
   75.6469   51.8672   41.7091 C   0  0  0  0  0  0
   74.7156   52.5958   42.3599 C   0  0  0  0  0  0
   74.7624   52.7581   43.7471 N   0  0  0  0  0  0
   75.7023   52.2182   44.5484 C   0  0  0  0  0  0
   75.6665   52.3767   45.7684 O   0  0  0  0  0  0
   76.7303   51.4438   43.8559 C   0  0  0  0  0  0
   77.7066   50.8711   44.7216 C   0  0  0  0  0  0
   78.4723   50.4247   45.4646 N   0  0  0  0  0  0
   73.5301   53.2752   41.6754 C   0  0  2  0  0  0
   73.5536   53.2080   40.1403 C   0  0  0  0  0  0
   74.1629   51.9154   39.6394 N   0  0  0  0  0  0
   75.5862   51.7783   40.1806 C   0  0  0  0  0  0
   72.6664   52.6907   41.9933 H   0  0  0  0  0  0
   72.5491   53.3463   39.7375 H   0  0  0  0  0  0
   74.1721   53.9906   39.7152 H   0  0  0  0  0  0
   76.2138   52.5768   39.7810 H   0  0  0  0  0  0
   75.9881   50.8598   39.7711 H   0  0  0  0  0  0
   74.0228   53.3179   44.1572 H   0  0  0  0  0  0
   78.2659   50.0552   41.5379 R   0  0  0  0  0  0
   73.6060   51.1349   39.9569 H   0  0  0  0  0  0
   73.3435   54.6827   42.1592 C   0  0  0  0  0  0
   72.0896   54.7678   42.9781 C   0  0  1  0  0  0
   71.3802   56.0983   43.0908 C   0  0  0  0  0  0
   70.7699   54.9831   42.2723 C   0  0  2  0  0  0
   69.5477   54.2872   42.7937 C   0  0  0  0  0  0
   73.2355   55.6059   40.9820 C   0  0  1  0  0  0
   73.6140   57.0593   41.1567 C   0  0  0  0  0  0
   74.5031   56.1379   40.3527 C   0  0  1  0  0  0
   75.8257   55.7244   40.9270 C   0  0  0  0  0  0
   74.1975   54.9728   42.7713 H   0  0  0  0  0  0
   72.1203   54.1110   43.8501 H   0  0  0  0  0  0
   70.9160   56.3695   44.0414 H   0  0  0  0  0  0
   71.7982   56.9643   42.5733 H   0  0  0  0  0  0
   70.7623   55.0713   41.1837 H   0  0  0  0  0  0
   69.6015   54.2238   43.8805 H   0  0  0  0  0  0
   68.6591   54.8492   42.5061 H   0  0  0  0  0  0
   69.4943   53.2829   42.3734 H   0  0  0  0  0  0
   72.3913   55.3548   40.3362 H   0  0  0  0  0  0
   73.0338   57.8220   40.6329 H   0  0  0  0  0  0
   73.9566   57.4009   42.1358 H   0  0  0  0  0  0
   74.5433   56.2580   39.2679 H   0  0  0  0  0  0
   75.7350   55.6180   42.0080 H   0  0  0  0  0  0
   76.1287   54.7719   40.4923 H   0  0  0  0  0  0
   76.5743   56.4829   40.6981 H   0  0  0  0  0  0
  1  2  1  0  0  0
  1  7  2  0  0  0
  1 20  1  0  0  0
  2  3  2  0  0  0
  2 13  1  0  0  0
  3  4  1  0  0  0
  3 10  1  0  0  0
  4  5  1  0  0  0
  4 19  1  0  0  0
  5  6  2  0  0  0
  5  7  1  0  0  0
  7  8  1  0  0  0
  8  9  3  0  0  0
 10 11  1  0  0  0
 10 14  1  0  0  0
 10 22  1  0  0  0
 11 12  1  0  0  0
 11 15  1  0  0  0
 11 16  1  0  0  0
 12 13  1  0  0  0
 12 21  1  0  0  0
 13 17  1  0  0  0
 13 18  1  0  0  0
 22 23  1  0  0  0
 22 27  1  0  0  0
 22 31  1  0  0  0
 23 24  1  0  0  0
 23 25  1  0  0  0
 23 32  1  0  0  0
 24 25  1  0  0  0
 24 33  1  0  0  0
 24 34  1  0  0  0
 25 26  1  0  0  0
 25 35  1  0  0  0
 26 36  1  0  0  0
 26 37  1  0  0  0
 26 38  1  0  0  0
 27 28  1  0  0  0
 27 29  1  0  0  0
 27 39  1  0  0  0
 28 29  1  0  0  0
 28 40  1  0  0  0
 28 41  1  0  0  0
 29 30  1  0  0  0
 29 42  1  0  0  0
 30 43  1  0  0  0
 30 44  1  0  0  0
 30 45  1  0  0  0
M  END
> <b_m_subgroup_collapsed>
0

> <s_m_subgroup_title>
enumerate_138-out

> <s_m_subgroupid>
enumerate_138-out

$$$$
