11262-4
                    3D
 Schrodinger Suite 2024-3.
 42 44  0  0  1  0            999 V2000
   76.7152   51.2564   42.5117 C   0  0  0  0  0  0
   75.6469   51.8672   41.7091 C   0  0  0  0  0  0
   74.7156   52.5958   42.3599 C   0  0  0  0  0  0
   74.7624   52.7581   43.7471 N   0  0  0  0  0  0
   75.7023   52.2182   44.5484 C   0  0  0  0  0  0
   75.6665   52.3767   45.7684 O   0  0  0  0  0  0
   76.7303   51.4438   43.8559 C   0  0  0  0  0  0
   77.7066   50.8711   44.7216 C   0  0  0  0  0  0
   78.4723   50.4247   45.4646 N   0  0  0  0  0  0
   73.5301   53.2752   41.6754 C   0  0  2  0  0  0
   73.5536   53.2080   40.1403 C   0  0  0  0  0  0
   74.1629   51.9154   39.6394 N   0  0  0  0  0  0
   75.5862   51.7783   40.1806 C   0  0  0  0  0  0
   72.6664   52.6907   41.9933 H   0  0  0  0  0  0
   72.5491   53.3463   39.7375 H   0  0  0  0  0  0
   74.1721   53.9906   39.7152 H   0  0  0  0  0  0
   76.2138   52.5768   39.7810 H   0  0  0  0  0  0
   75.9881   50.8598   39.7711 H   0  0  0  0  0  0
   74.0228   53.3179   44.1572 H   0  0  0  0  0  0
   78.2659   50.0552   41.5379 R   0  0  0  0  0  0
   73.6060   51.1349   39.9569 H   0  0  0  0  0  0
   73.3435   54.6827   42.1592 C   0  0  1  0  0  0
   74.5026   55.5769   41.6877 C   0  0  0  0  0  0
   74.2490   57.0564   42.0350 C   0  0  2  0  0  0
   74.2794   57.2711   43.5193 C   0  0  0  0  0  0
   72.9891   57.4729   41.4997 O   0  0  0  0  0  0
   71.8667   56.7485   42.0120 C   0  0  1  0  0  0
   70.6092   57.3057   41.4136 C   0  0  0  0  0  0
   72.0043   55.2539   41.6636 C   0  0  0  0  0  0
   73.3395   54.6322   43.2503 H   0  0  0  0  0  0
   75.4430   55.2448   42.1298 H   0  0  0  0  0  0
   74.6238   55.4811   40.6074 H   0  0  0  0  0  0
   75.0385   57.6820   41.6162 H   0  0  0  0  0  0
   75.2437   56.9499   43.9131 H   0  0  0  0  0  0
   74.1324   58.3291   43.7365 H   0  0  0  0  0  0
   73.4843   56.6903   43.9868 H   0  0  0  0  0  0
   71.7850   56.8914   43.0918 H   0  0  0  0  0  0
   69.7494   56.7582   41.7996 H   0  0  0  0  0  0
   70.5172   58.3593   41.6772 H   0  0  0  0  0  0
   70.6472   57.2046   40.3289 H   0  0  0  0  0  0
   71.9319   55.1332   40.5814 H   0  0  0  0  0  0
   71.1710   54.6925   42.0886 H   0  0  0  0  0  0
  1  2  1  0  0  0
  1  7  2  0  0  0
  1 20  1  0  0  0
  2  3  2  0  0  0
  2 13  1  0  0  0
  3  4  1  0  0  0
  3 10  1  0  0  0
  4  5  1  0  0  0
  4 19  1  0  0  0
  5  6  2  0  0  0
  5  7  1  0  0  0
  7  8  1  0  0  0
  8  9  3  0  0  0
 10 11  1  0  0  0
 10 14  1  0  0  0
 10 22  1  0  0  0
 11 12  1  0  0  0
 11 15  1  0  0  0
 11 16  1  0  0  0
 12 13  1  0  0  0
 12 21  1  0  0  0
 13 17  1  0  0  0
 13 18  1  0  0  0
 22 23  1  0  0  0
 22 29  1  0  0  0
 22 30  1  0  0  0
 23 24  1  0  0  0
 23 31  1  0  0  0
 23 32  1  0  0  0
 24 25  1  0  0  0
 24 26  1  0  0  0
 24 33  1  0  0  0
 25 34  1  0  0  0
 25 35  1  0  0  0
 25 36  1  0  0  0
 26 27  1  0  0  0
 27 28  1  0  0  0
 27 29  1  0  0  0
 27 37  1  0  0  0
 28 38  1  0  0  0
 28 39  1  0  0  0
 28 40  1  0  0  0
 29 41  1  0  0  0
 29 42  1  0  0  0
M  END
> <b_m_subgroup_collapsed>
1

> <s_m_subgroup_title>
enumerate_137-out

> <s_m_subgroupid>
enumerate_137-out

$$$$
