22958-6
                    3D
 Schrodinger Suite 2024-3.
 45 48  0  0  1  0            999 V2000
   76.7152   51.2564   42.5117 C   0  0  0  0  0  0
   75.6469   51.8672   41.7091 C   0  0  0  0  0  0
   74.7156   52.5958   42.3599 C   0  0  0  0  0  0
   74.7624   52.7581   43.7471 N   0  0  0  0  0  0
   75.7023   52.2182   44.5484 C   0  0  0  0  0  0
   75.6665   52.3767   45.7684 O   0  0  0  0  0  0
   76.7303   51.4438   43.8559 C   0  0  0  0  0  0
   77.7066   50.8711   44.7216 C   0  0  0  0  0  0
   78.4723   50.4247   45.4646 N   0  0  0  0  0  0
   73.5301   53.2752   41.6754 C   0  0  2  0  0  0
   73.5536   53.2080   40.1403 C   0  0  0  0  0  0
   74.1629   51.9154   39.6394 C   0  0  0  0  0  0
   75.5862   51.7783   40.1806 C   0  0  0  0  0  0
   72.6664   52.6907   41.9933 H   0  0  0  0  0  0
   72.5491   53.3463   39.7375 H   0  0  0  0  0  0
   74.1721   53.9906   39.7152 H   0  0  0  0  0  0
   73.5550   51.0645   39.9511 H   0  0  0  0  0  0
   74.1759   51.9052   38.5496 H   0  0  0  0  0  0
   76.2138   52.5768   39.7810 H   0  0  0  0  0  0
   75.9881   50.8598   39.7711 H   0  0  0  0  0  0
   74.0228   53.3179   44.1572 H   0  0  0  0  0  0
   78.2659   50.0552   41.5379 R   0  0  0  0  0  0
   73.3582   54.5697   42.1217 O   0  0  0  0  0  0
   72.1910   55.1790   41.7083 C   0  0  2  0  0  0
   72.0318   56.5975   42.2621 C   0  0  0  0  0  0
   70.5256   56.8864   42.1866 C   0  0  2  0  0  0
   69.9967   57.5187   43.3569 O   0  0  0  0  0  0
   69.5455   56.5198   44.2704 C   0  0  0  0  0  0
   68.8789   55.5335   43.3199 C   0  0  2  0  0  0
   68.6678   54.1844   43.9406 C   0  0  0  0  0  0
   69.8231   55.5206   42.1266 C   0  0  2  0  0  0
   70.9375   54.4574   42.2039 C   0  0  0  0  0  0
   72.2032   55.2006   40.6163 H   0  0  0  0  0  0
   72.3692   56.6279   43.2993 H   0  0  0  0  0  0
   72.6210   57.3301   41.7094 H   0  0  0  0  0  0
   70.2915   57.4829   41.3022 H   0  0  0  0  0  0
   70.3877   56.0704   44.8014 H   0  0  0  0  0  0
   68.8538   56.9252   45.0103 H   0  0  0  0  0  0
   67.8994   55.9151   43.0253 H   0  0  0  0  0  0
   69.6286   53.7715   44.2480 H   0  0  0  0  0  0
   68.0191   54.2824   44.8111 H   0  0  0  0  0  0
   68.2022   53.5189   43.2136 H   0  0  0  0  0  0
   69.2742   55.4178   41.1878 H   0  0  0  0  0  0
   70.7091   53.5672   41.6151 H   0  0  0  0  0  0
   71.0970   54.1275   43.2330 H   0  0  0  0  0  0
  1  2  1  0  0  0
  1  7  2  0  0  0
  1 22  1  0  0  0
  2  3  2  0  0  0
  2 13  1  0  0  0
  3  4  1  0  0  0
  3 10  1  0  0  0
  4  5  1  0  0  0
  4 21  1  0  0  0
  5  6  2  0  0  0
  5  7  1  0  0  0
  7  8  1  0  0  0
  8  9  3  0  0  0
 10 11  1  0  0  0
 10 14  1  0  0  0
 10 23  1  0  0  0
 11 12  1  0  0  0
 11 15  1  0  0  0
 11 16  1  0  0  0
 12 13  1  0  0  0
 12 17  1  0  0  0
 12 18  1  0  0  0
 13 19  1  0  0  0
 13 20  1  0  0  0
 23 24  1  0  0  0
 24 25  1  0  0  0
 24 32  1  0  0  0
 24 33  1  0  0  0
 25 26  1  0  0  0
 25 34  1  0  0  0
 25 35  1  0  0  0
 26 27  1  0  0  0
 26 31  1  0  0  0
 26 36  1  0  0  0
 27 28  1  0  0  0
 28 29  1  0  0  0
 28 37  1  0  0  0
 28 38  1  0  0  0
 29 30  1  0  0  0
 29 31  1  0  0  0
 29 39  1  0  0  0
 30 40  1  0  0  0
 30 41  1  0  0  0
 30 42  1  0  0  0
 31 32  1  0  0  0
 31 43  1  0  0  0
 32 44  1  0  0  0
 32 45  1  0  0  0
M  END
> <b_m_subgroup_collapsed>
0

> <s_m_subgroup_title>
enumerate_136-out

> <s_m_subgroupid>
enumerate_136-out

$$$$
