24810-2
                    3D
 Schrodinger Suite 2024-3.
 49 51  0  0  1  0            999 V2000
   76.7152   51.2564   42.5117 C   0  0  0  0  0  0
   75.6469   51.8672   41.7091 C   0  0  0  0  0  0
   74.7156   52.5958   42.3599 C   0  0  0  0  0  0
   74.7624   52.7581   43.7471 N   0  0  0  0  0  0
   75.7023   52.2182   44.5484 C   0  0  0  0  0  0
   75.6665   52.3767   45.7684 O   0  0  0  0  0  0
   76.7303   51.4438   43.8559 C   0  0  0  0  0  0
   77.7066   50.8711   44.7216 C   0  0  0  0  0  0
   78.4723   50.4247   45.4646 N   0  0  0  0  0  0
   73.5301   53.2752   41.6754 C   0  0  2  0  0  0
   73.5536   53.2080   40.1403 C   0  0  0  0  0  0
   74.1629   51.9154   39.6394 C   0  0  0  0  0  0
   75.5862   51.7783   40.1806 C   0  0  0  0  0  0
   72.6664   52.6907   41.9933 H   0  0  0  0  0  0
   72.5491   53.3463   39.7375 H   0  0  0  0  0  0
   74.1721   53.9906   39.7152 H   0  0  0  0  0  0
   73.5550   51.0645   39.9511 H   0  0  0  0  0  0
   74.1759   51.9052   38.5496 H   0  0  0  0  0  0
   76.2138   52.5768   39.7810 H   0  0  0  0  0  0
   75.9881   50.8598   39.7711 H   0  0  0  0  0  0
   74.0228   53.3179   44.1572 H   0  0  0  0  0  0
   78.2659   50.0552   41.5379 R   0  0  0  0  0  0
   73.3482   54.6447   42.1476 N   0  0  0  0  0  0
   72.1753   55.2316   42.3877 C   0  0  0  0  0  0
   71.0998   54.6612   42.2306 O   0  0  0  0  0  0
   72.3453   56.6443   42.8625 C   0  0  1  0  0  0
   71.6699   57.6054   41.8635 C   0  0  0  0  0  0
   70.1365   57.4426   41.8609 C   0  0  0  0  0  0
   69.5443   57.5817   43.2778 C   0  0  0  0  0  0
   70.2196   56.6206   44.2768 C   0  0  0  0  0  0
   71.7530   56.7834   44.2794 C   0  0  0  0  0  0
   72.3754   55.7739   45.1979 C   0  0  0  0  0  0
   72.1106   58.1283   44.8392 C   0  0  0  0  0  0
   73.4210   56.8263   42.8874 H   0  0  0  0  0  0
   71.9250   58.6350   42.1217 H   0  0  0  0  0  0
   72.0651   57.4398   40.8598 H   0  0  0  0  0  0
   69.6837   58.1771   41.1927 H   0  0  0  0  0  0
   69.8763   56.4638   41.4534 H   0  0  0  0  0  0
   69.6680   58.6099   43.6234 H   0  0  0  0  0  0
   68.4685   57.3997   43.2529 H   0  0  0  0  0  0
   69.9646   55.5910   44.0186 H   0  0  0  0  0  0
   69.8244   56.7863   45.2804 H   0  0  0  0  0  0
   71.9506   55.8803   46.1960 H   0  0  0  0  0  0
   72.1758   54.7700   44.8231 H   0  0  0  0  0  0
   73.4521   55.9379   45.2419 H   0  0  0  0  0  0
   71.6924   58.2277   45.8409 H   0  0  0  0  0  0
   73.1952   58.2253   44.8871 H   0  0  0  0  0  0
   71.7039   58.9092   44.1966 H   0  0  0  0  0  0
   74.2543   55.0758   42.2631 H   0  0  0  0  0  0
  1  2  1  0  0  0
  1  7  2  0  0  0
  1 22  1  0  0  0
  2  3  2  0  0  0
  2 13  1  0  0  0
  3  4  1  0  0  0
  3 10  1  0  0  0
  4  5  1  0  0  0
  4 21  1  0  0  0
  5  6  2  0  0  0
  5  7  1  0  0  0
  7  8  1  0  0  0
  8  9  3  0  0  0
 10 11  1  0  0  0
 10 14  1  0  0  0
 10 23  1  0  0  0
 11 12  1  0  0  0
 11 15  1  0  0  0
 11 16  1  0  0  0
 12 13  1  0  0  0
 12 17  1  0  0  0
 12 18  1  0  0  0
 13 19  1  0  0  0
 13 20  1  0  0  0
 23 24  1  0  0  0
 23 49  1  0  0  0
 24 25  2  0  0  0
 24 26  1  0  0  0
 26 27  1  0  0  0
 26 31  1  0  0  0
 26 34  1  0  0  0
 27 28  1  0  0  0
 27 35  1  0  0  0
 27 36  1  0  0  0
 28 29  1  0  0  0
 28 37  1  0  0  0
 28 38  1  0  0  0
 29 30  1  0  0  0
 29 39  1  0  0  0
 29 40  1  0  0  0
 30 31  1  0  0  0
 30 41  1  0  0  0
 30 42  1  0  0  0
 31 32  1  0  0  0
 31 33  1  0  0  0
 32 43  1  0  0  0
 32 44  1  0  0  0
 32 45  1  0  0  0
 33 46  1  0  0  0
 33 47  1  0  0  0
 33 48  1  0  0  0
M  END
> <b_m_subgroup_collapsed>
0

> <s_m_subgroup_title>
enumerate_135-out

> <s_m_subgroupid>
enumerate_135-out

$$$$
