5444-1
                    3D
 Schrodinger Suite 2024-3.
 42 43  0  0  1  0            999 V2000
   76.7152   51.2564   42.5117 C   0  0  0  0  0  0
   75.6469   51.8672   41.7091 C   0  0  0  0  0  0
   74.7156   52.5958   42.3599 C   0  0  0  0  0  0
   74.7624   52.7581   43.7471 N   0  0  0  0  0  0
   75.7023   52.2182   44.5484 C   0  0  0  0  0  0
   75.6665   52.3767   45.7684 O   0  0  0  0  0  0
   76.7303   51.4438   43.8559 C   0  0  0  0  0  0
   77.7066   50.8711   44.7216 C   0  0  0  0  0  0
   78.4723   50.4247   45.4646 N   0  0  0  0  0  0
   73.5301   53.2752   41.6754 C   0  0  2  0  0  0
   73.5536   53.2080   40.1403 C   0  0  0  0  0  0
   74.1629   51.9154   39.6394 C   0  0  0  0  0  0
   75.5862   51.7783   40.1806 C   0  0  0  0  0  0
   72.6664   52.6907   41.9933 H   0  0  0  0  0  0
   72.5491   53.3463   39.7375 H   0  0  0  0  0  0
   74.1721   53.9906   39.7152 H   0  0  0  0  0  0
   73.5550   51.0645   39.9511 H   0  0  0  0  0  0
   74.1759   51.9052   38.5496 H   0  0  0  0  0  0
   76.2138   52.5768   39.7810 H   0  0  0  0  0  0
   75.9881   50.8598   39.7711 H   0  0  0  0  0  0
   74.0228   53.3179   44.1572 H   0  0  0  0  0  0
   78.2659   50.0552   41.5379 R   0  0  0  0  0  0
   73.1546   57.4344   40.0251 C   0  0  0  0  0  0
   73.2358   57.6292   41.5102 C   0  0  0  0  0  0
   74.4383   56.9088   42.0440 C   0  0  1  0  0  0
   74.5194   57.1036   43.5291 C   0  0  0  0  0  0
   74.3243   55.4842   41.7456 N   0  0  0  0  0  0
   75.4580   55.0794   40.9194 C   0  0  0  0  0  0
   73.3432   54.6822   42.1606 C   0  0  0  0  0  0
   72.4106   55.0743   42.8556 O   0  0  0  0  0  0
   72.2808   57.9580   39.6372 H   0  0  0  0  0  0
   74.0546   57.8329   39.5567 H   0  0  0  0  0  0
   73.0696   56.3709   39.8023 H   0  0  0  0  0  0
   72.3359   57.2308   41.9786 H   0  0  0  0  0  0
   73.3209   58.6928   41.7330 H   0  0  0  0  0  0
   75.3382   57.3073   41.5756 H   0  0  0  0  0  0
   74.6045   58.1672   43.7519 H   0  0  0  0  0  0
   73.6195   56.7051   43.9976 H   0  0  0  0  0  0
   75.3932   56.5801   43.9170 H   0  0  0  0  0  0
   75.3805   54.0163   40.6919 H   0  0  0  0  0  0
   75.4535   55.6509   39.9912 H   0  0  0  0  0  0
   76.3863   55.2689   41.4583 H   0  0  0  0  0  0
  1  2  1  0  0  0
  1  7  2  0  0  0
  1 22  1  0  0  0
  2  3  2  0  0  0
  2 13  1  0  0  0
  3  4  1  0  0  0
  3 10  1  0  0  0
  4  5  1  0  0  0
  4 21  1  0  0  0
  5  6  2  0  0  0
  5  7  1  0  0  0
  7  8  1  0  0  0
  8  9  3  0  0  0
 10 11  1  0  0  0
 10 14  1  0  0  0
 10 29  1  0  0  0
 11 12  1  0  0  0
 11 15  1  0  0  0
 11 16  1  0  0  0
 12 13  1  0  0  0
 12 17  1  0  0  0
 12 18  1  0  0  0
 13 19  1  0  0  0
 13 20  1  0  0  0
 23 24  1  0  0  0
 23 31  1  0  0  0
 23 32  1  0  0  0
 23 33  1  0  0  0
 24 25  1  0  0  0
 24 34  1  0  0  0
 24 35  1  0  0  0
 25 26  1  0  0  0
 25 27  1  0  0  0
 25 36  1  0  0  0
 26 37  1  0  0  0
 26 38  1  0  0  0
 26 39  1  0  0  0
 27 28  1  0  0  0
 27 29  1  0  0  0
 28 40  1  0  0  0
 28 41  1  0  0  0
 28 42  1  0  0  0
 29 30  2  0  0  0
M  END
> <b_m_subgroup_collapsed>
0

> <s_m_subgroup_title>
enumerate_135-out

> <s_m_subgroupid>
enumerate_135-out

$$$$
