7848-1
                    3D
 Schrodinger Suite 2024-3.
 41 42  0  0  1  0            999 V2000
   76.7152   51.2564   42.5117 C   0  0  0  0  0  0
   75.6469   51.8672   41.7091 C   0  0  0  0  0  0
   74.7156   52.5958   42.3599 C   0  0  0  0  0  0
   74.7624   52.7581   43.7471 N   0  0  0  0  0  0
   75.7023   52.2182   44.5484 C   0  0  0  0  0  0
   75.6665   52.3767   45.7684 O   0  0  0  0  0  0
   76.7303   51.4438   43.8559 C   0  0  0  0  0  0
   77.7066   50.8711   44.7216 C   0  0  0  0  0  0
   78.4723   50.4247   45.4646 N   0  0  0  0  0  0
   73.5301   53.2752   41.6754 C   0  0  2  0  0  0
   73.5536   53.2080   40.1403 C   0  0  0  0  0  0
   74.1629   51.9154   39.6394 C   0  0  0  0  0  0
   75.5862   51.7783   40.1806 C   0  0  0  0  0  0
   72.6664   52.6907   41.9933 H   0  0  0  0  0  0
   72.5491   53.3463   39.7375 H   0  0  0  0  0  0
   74.1721   53.9906   39.7152 H   0  0  0  0  0  0
   73.5550   51.0645   39.9511 H   0  0  0  0  0  0
   74.1759   51.9052   38.5496 H   0  0  0  0  0  0
   76.2138   52.5768   39.7810 H   0  0  0  0  0  0
   75.9881   50.8598   39.7711 H   0  0  0  0  0  0
   74.0228   53.3179   44.1572 H   0  0  0  0  0  0
   78.2659   50.0552   41.5379 R   0  0  0  0  0  0
   69.0177   58.0373   42.8124 C   0  0  0  0  0  0
   68.4928   56.6326   42.7804 C   0  0  0  0  0  0
   69.5087   55.7054   43.3790 C   0  0  0  0  0  0
   70.7817   55.7816   42.5895 C   0  0  0  0  0  0
   71.7976   54.8545   43.1881 C   0  0  0  0  0  0
   73.3084   54.9449   42.2511 S   0  0  0  0  0  0
   74.3964   55.2391   43.1901 O   0  0  0  0  0  0
   73.0538   55.7888   41.0785 O   0  0  0  0  0  0
   68.2795   58.7111   42.3774 H   0  0  0  0  0  0
   69.2122   58.3291   43.8445 H   0  0  0  0  0  0
   69.9428   58.0927   42.2386 H   0  0  0  0  0  0
   68.2982   56.3408   41.7483 H   0  0  0  0  0  0
   67.5677   56.5772   43.3542 H   0  0  0  0  0  0
   69.1272   54.6846   43.3558 H   0  0  0  0  0  0
   69.7032   55.9972   44.4111 H   0  0  0  0  0  0
   71.1632   56.8024   42.6127 H   0  0  0  0  0  0
   70.5872   55.4899   41.5574 H   0  0  0  0  0  0
   71.4162   53.8337   43.1648 H   0  0  0  0  0  0
   71.9922   55.1462   44.2202 H   0  0  0  0  0  0
  1  2  1  0  0  0
  1  7  2  0  0  0
  1 22  1  0  0  0
  2  3  2  0  0  0
  2 13  1  0  0  0
  3  4  1  0  0  0
  3 10  1  0  0  0
  4  5  1  0  0  0
  4 21  1  0  0  0
  5  6  2  0  0  0
  5  7  1  0  0  0
  7  8  1  0  0  0
  8  9  3  0  0  0
 10 11  1  0  0  0
 10 14  1  0  0  0
 10 28  1  0  0  0
 11 12  1  0  0  0
 11 15  1  0  0  0
 11 16  1  0  0  0
 12 13  1  0  0  0
 12 17  1  0  0  0
 12 18  1  0  0  0
 13 19  1  0  0  0
 13 20  1  0  0  0
 23 24  1  0  0  0
 23 31  1  0  0  0
 23 32  1  0  0  0
 23 33  1  0  0  0
 24 25  1  0  0  0
 24 34  1  0  0  0
 24 35  1  0  0  0
 25 26  1  0  0  0
 25 36  1  0  0  0
 25 37  1  0  0  0
 26 27  1  0  0  0
 26 38  1  0  0  0
 26 39  1  0  0  0
 27 28  1  0  0  0
 27 40  1  0  0  0
 27 41  1  0  0  0
 28 29  2  0  0  0
 28 30  2  0  0  0
M  END
> <b_m_subgroup_collapsed>
0

> <s_m_subgroup_title>
enumerate_136-out

> <s_m_subgroupid>
enumerate_136-out

$$$$
