22433-2
                    3D
 Schrodinger Suite 2024-3.
 42 45  0  0  1  0            999 V2000
   76.7152   51.2564   42.5117 C   0  0  0  0  0  0
   75.6469   51.8672   41.7091 C   0  0  0  0  0  0
   74.7156   52.5958   42.3599 C   0  0  0  0  0  0
   74.7624   52.7581   43.7471 N   0  0  0  0  0  0
   75.7023   52.2182   44.5484 C   0  0  0  0  0  0
   75.6665   52.3767   45.7684 O   0  0  0  0  0  0
   76.7303   51.4438   43.8559 C   0  0  0  0  0  0
   77.7066   50.8711   44.7216 C   0  0  0  0  0  0
   78.4723   50.4247   45.4646 N   0  0  0  0  0  0
   73.5301   53.2752   41.6754 C   0  0  2  0  0  0
   73.5536   53.2080   40.1403 C   0  0  0  0  0  0
   74.1629   51.9154   39.6394 C   0  0  0  0  0  0
   75.5862   51.7783   40.1806 C   0  0  0  0  0  0
   72.6664   52.6907   41.9933 H   0  0  0  0  0  0
   72.5491   53.3463   39.7375 H   0  0  0  0  0  0
   74.1721   53.9906   39.7152 H   0  0  0  0  0  0
   73.5550   51.0645   39.9511 H   0  0  0  0  0  0
   74.1759   51.9052   38.5496 H   0  0  0  0  0  0
   76.2138   52.5768   39.7810 H   0  0  0  0  0  0
   75.9881   50.8598   39.7711 H   0  0  0  0  0  0
   74.0228   53.3179   44.1572 H   0  0  0  0  0  0
   78.2659   50.0552   41.5379 R   0  0  0  0  0  0
   73.3432   54.6822   42.1606 C   0  0  2  0  0  0
   72.0416   54.8673   42.9342 C   0  0  0  0  0  0
   71.7630   56.3638   42.8240 C   0  0  1  0  0  0
   72.1549   56.9623   43.9533 F   0  0  0  0  0  0
   72.6594   56.8328   41.6665 C   0  0  0  0  0  0
   73.2313   55.6285   41.0592 N   0  0  0  0  0  0
   74.5428   55.9130   40.4841 C   0  0  0  0  0  0
   74.6501   56.1564   38.9958 C   0  0  0  0  0  0
   74.8257   57.3042   39.9641 C   0  0  0  0  0  0
   74.2039   54.9312   42.7879 H   0  0  0  0  0  0
   71.2419   54.3057   42.4490 H   0  0  0  0  0  0
   72.1095   54.5136   43.9636 H   0  0  0  0  0  0
   70.7067   56.6009   42.6864 H   0  0  0  0  0  0
   72.1013   57.4213   40.9354 H   0  0  0  0  0  0
   73.4586   57.4753   42.0448 H   0  0  0  0  0  0
   75.3423   55.3656   40.9880 H   0  0  0  0  0  0
   75.5245   55.7788   38.4614 H   0  0  0  0  0  0
   73.7439   56.1134   38.3877 H   0  0  0  0  0  0
   74.0421   58.0619   40.0316 H   0  0  0  0  0  0
   75.8227   57.7273   40.1052 H   0  0  0  0  0  0
  1  2  1  0  0  0
  1  7  2  0  0  0
  1 22  1  0  0  0
  2  3  2  0  0  0
  2 13  1  0  0  0
  3  4  1  0  0  0
  3 10  1  0  0  0
  4  5  1  0  0  0
  4 21  1  0  0  0
  5  6  2  0  0  0
  5  7  1  0  0  0
  7  8  1  0  0  0
  8  9  3  0  0  0
 10 11  1  0  0  0
 10 14  1  0  0  0
 10 23  1  0  0  0
 11 12  1  0  0  0
 11 15  1  0  0  0
 11 16  1  0  0  0
 12 13  1  0  0  0
 12 17  1  0  0  0
 12 18  1  0  0  0
 13 19  1  0  0  0
 13 20  1  0  0  0
 23 24  1  0  0  0
 23 28  1  0  0  0
 23 32  1  0  0  0
 24 25  1  0  0  0
 24 33  1  0  0  0
 24 34  1  0  0  0
 25 26  1  0  0  0
 25 27  1  0  0  0
 25 35  1  0  0  0
 27 28  1  0  0  0
 27 36  1  0  0  0
 27 37  1  0  0  0
 28 29  1  0  0  0
 29 30  1  0  0  0
 29 31  1  0  0  0
 29 38  1  0  0  0
 30 31  1  0  0  0
 30 39  1  0  0  0
 30 40  1  0  0  0
 31 41  1  0  0  0
 31 42  1  0  0  0
M  END
> <b_m_subgroup_collapsed>
0

> <s_m_subgroup_title>
enumerate_136-out

> <s_m_subgroupid>
enumerate_136-out

$$$$
