16776-2
                    3D
 Schrodinger Suite 2024-3.
 39 41  0  0  1  0            999 V2000
   76.7152   51.2564   42.5117 C   0  0  0  0  0  0
   75.6469   51.8672   41.7091 C   0  0  0  0  0  0
   74.7156   52.5958   42.3599 C   0  0  0  0  0  0
   74.7624   52.7581   43.7471 N   0  0  0  0  0  0
   75.7023   52.2182   44.5484 C   0  0  0  0  0  0
   75.6665   52.3767   45.7684 O   0  0  0  0  0  0
   76.7303   51.4438   43.8559 C   0  0  0  0  0  0
   77.7066   50.8711   44.7216 C   0  0  0  0  0  0
   78.4723   50.4247   45.4646 N   0  0  0  0  0  0
   73.5301   53.2752   41.6754 C   0  0  2  0  0  0
   73.5536   53.2080   40.1403 C   0  0  0  0  0  0
   74.1629   51.9154   39.6394 C   0  0  0  0  0  0
   75.5862   51.7783   40.1806 C   0  0  0  0  0  0
   72.6664   52.6907   41.9933 H   0  0  0  0  0  0
   72.5491   53.3463   39.7375 H   0  0  0  0  0  0
   74.1721   53.9906   39.7152 H   0  0  0  0  0  0
   73.5550   51.0645   39.9511 H   0  0  0  0  0  0
   74.1759   51.9052   38.5496 H   0  0  0  0  0  0
   76.2138   52.5768   39.7810 H   0  0  0  0  0  0
   75.9881   50.8598   39.7711 H   0  0  0  0  0  0
   74.0228   53.3179   44.1572 H   0  0  0  0  0  0
   78.2659   50.0552   41.5379 R   0  0  0  0  0  0
   73.3582   54.5697   42.1217 O   0  0  0  0  0  0
   72.1910   55.1790   41.7083 C   0  0  1  0  0  0
   71.3097   55.5624   42.9186 C   0  0  0  0  0  0
   70.0540   56.3544   42.4931 C   0  0  0  0  0  0
   70.4243   57.5611   41.7473 N   0  0  0  0  0  0
   71.2318   57.2426   40.5484 C   0  0  0  0  0  0
   72.5141   56.4089   40.8423 C   0  0  0  0  0  0
   73.4164   57.1661   41.4722 F   0  0  0  0  0  0
   73.0674   56.0083   39.6967 F   0  0  0  0  0  0
   71.6630   54.4465   41.0968 H   0  0  0  0  0  0
   71.0109   54.6648   43.4622 H   0  0  0  0  0  0
   71.8896   56.1594   43.6251 H   0  0  0  0  0  0
   69.4727   56.6353   43.3742 H   0  0  0  0  0  0
   69.3985   55.7281   41.8827 H   0  0  0  0  0  0
   69.5782   58.0672   41.4744 H   0  0  0  0  0  0
   71.5165   58.1661   40.0414 H   0  0  0  0  0  0
   70.6136   56.6950   39.8339 H   0  0  0  0  0  0
  1  2  1  0  0  0
  1  7  2  0  0  0
  1 22  1  0  0  0
  2  3  2  0  0  0
  2 13  1  0  0  0
  3  4  1  0  0  0
  3 10  1  0  0  0
  4  5  1  0  0  0
  4 21  1  0  0  0
  5  6  2  0  0  0
  5  7  1  0  0  0
  7  8  1  0  0  0
  8  9  3  0  0  0
 10 11  1  0  0  0
 10 14  1  0  0  0
 10 23  1  0  0  0
 11 12  1  0  0  0
 11 15  1  0  0  0
 11 16  1  0  0  0
 12 13  1  0  0  0
 12 17  1  0  0  0
 12 18  1  0  0  0
 13 19  1  0  0  0
 13 20  1  0  0  0
 23 24  1  0  0  0
 24 25  1  0  0  0
 24 29  1  0  0  0
 24 32  1  0  0  0
 25 26  1  0  0  0
 25 33  1  0  0  0
 25 34  1  0  0  0
 26 27  1  0  0  0
 26 35  1  0  0  0
 26 36  1  0  0  0
 27 28  1  0  0  0
 27 37  1  0  0  0
 28 29  1  0  0  0
 28 38  1  0  0  0
 28 39  1  0  0  0
 29 30  1  0  0  0
 29 31  1  0  0  0
M  END
> <b_m_subgroup_collapsed>
0

> <s_m_subgroup_title>
enumerate_135-out

> <s_m_subgroupid>
enumerate_135-out

$$$$
