7192-2
                    3D
 Schrodinger Suite 2024-3.
 44 46  0  0  1  0            999 V2000
   76.7152   51.2564   42.5117 C   0  0  0  0  0  0
   75.6469   51.8672   41.7091 C   0  0  0  0  0  0
   74.7156   52.5958   42.3599 C   0  0  0  0  0  0
   74.7624   52.7581   43.7471 N   0  0  0  0  0  0
   75.7023   52.2182   44.5484 C   0  0  0  0  0  0
   75.6665   52.3767   45.7684 O   0  0  0  0  0  0
   76.7303   51.4438   43.8559 C   0  0  0  0  0  0
   77.7066   50.8711   44.7216 C   0  0  0  0  0  0
   78.4723   50.4247   45.4646 N   0  0  0  0  0  0
   73.5301   53.2752   41.6754 C   0  0  2  0  0  0
   73.5536   53.2080   40.1403 C   0  0  0  0  0  0
   74.1629   51.9154   39.6394 C   0  0  0  0  0  0
   75.5862   51.7783   40.1806 C   0  0  0  0  0  0
   72.6664   52.6907   41.9933 H   0  0  0  0  0  0
   72.5491   53.3463   39.7375 H   0  0  0  0  0  0
   74.1721   53.9906   39.7152 H   0  0  0  0  0  0
   73.5550   51.0645   39.9511 H   0  0  0  0  0  0
   74.1759   51.9052   38.5496 H   0  0  0  0  0  0
   76.2138   52.5768   39.7810 H   0  0  0  0  0  0
   75.9881   50.8598   39.7711 H   0  0  0  0  0  0
   74.0228   53.3179   44.1572 H   0  0  0  0  0  0
   78.2659   50.0552   41.5379 R   0  0  0  0  0  0
   69.3156   58.2837   40.4221 C   0  0  0  0  0  0
   70.6689   57.6534   40.5683 C   0  0  0  0  0  0
   71.4882   57.5352   39.6524 O   0  0  0  0  0  0
   70.8927   57.2259   41.8249 N   0  0  0  0  0  0
   69.8999   57.3784   42.8912 C   0  0  0  0  0  0
   70.4745   56.5076   44.0073 C   0  0  0  0  0  0
   71.9797   56.5498   43.7806 C   0  0  0  0  0  0
   72.1315   56.5722   42.2608 C   0  0  1  0  0  0
   72.1910   55.1790   41.7083 C   0  0  0  0  0  0
   73.3582   54.5697   42.1217 O   0  0  0  0  0  0
   68.7978   58.2588   41.3809 H   0  0  0  0  0  0
   69.4297   59.3180   40.0975 H   0  0  0  0  0  0
   68.7360   57.7324   39.6817 H   0  0  0  0  0  0
   68.8989   57.0586   42.5923 H   0  0  0  0  0  0
   69.8490   58.4234   43.2049 H   0  0  0  0  0  0
   70.1092   55.4839   43.9018 H   0  0  0  0  0  0
   70.1854   56.8557   45.0002 H   0  0  0  0  0  0
   72.5018   55.7092   44.2405 H   0  0  0  0  0  0
   72.3967   57.4650   44.2063 H   0  0  0  0  0  0
   73.0273   57.1085   41.9396 H   0  0  0  0  0  0
   72.1679   55.2186   40.6193 H   0  0  0  0  0  0
   71.3355   54.6081   42.0693 H   0  0  0  0  0  0
  1  2  1  0  0  0
  1  7  2  0  0  0
  1 22  1  0  0  0
  2  3  2  0  0  0
  2 13  1  0  0  0
  3  4  1  0  0  0
  3 10  1  0  0  0
  4  5  1  0  0  0
  4 21  1  0  0  0
  5  6  2  0  0  0
  5  7  1  0  0  0
  7  8  1  0  0  0
  8  9  3  0  0  0
 10 11  1  0  0  0
 10 14  1  0  0  0
 10 32  1  0  0  0
 11 12  1  0  0  0
 11 15  1  0  0  0
 11 16  1  0  0  0
 12 13  1  0  0  0
 12 17  1  0  0  0
 12 18  1  0  0  0
 13 19  1  0  0  0
 13 20  1  0  0  0
 23 24  1  0  0  0
 23 33  1  0  0  0
 23 34  1  0  0  0
 23 35  1  0  0  0
 24 25  2  0  0  0
 24 26  1  0  0  0
 26 27  1  0  0  0
 26 30  1  0  0  0
 27 28  1  0  0  0
 27 36  1  0  0  0
 27 37  1  0  0  0
 28 29  1  0  0  0
 28 38  1  0  0  0
 28 39  1  0  0  0
 29 30  1  0  0  0
 29 40  1  0  0  0
 29 41  1  0  0  0
 30 31  1  0  0  0
 30 42  1  0  0  0
 31 32  1  0  0  0
 31 43  1  0  0  0
 31 44  1  0  0  0
M  END
> <b_m_subgroup_collapsed>
0

> <s_m_subgroup_title>
enumerate_136-out

> <s_m_subgroupid>
enumerate_136-out

$$$$
