11921-8
                    3D
 Schrodinger Suite 2024-3.
 46 49  0  0  1  0            999 V2000
   76.7152   51.2564   42.5117 C   0  0  0  0  0  0
   75.6469   51.8672   41.7091 C   0  0  0  0  0  0
   74.7156   52.5958   42.3599 C   0  0  0  0  0  0
   74.7624   52.7581   43.7471 N   0  0  0  0  0  0
   75.7023   52.2182   44.5484 C   0  0  0  0  0  0
   75.6665   52.3767   45.7684 O   0  0  0  0  0  0
   76.7303   51.4438   43.8559 C   0  0  0  0  0  0
   77.7066   50.8711   44.7216 C   0  0  0  0  0  0
   78.4723   50.4247   45.4646 N   0  0  0  0  0  0
   73.5301   53.2752   41.6754 C   0  0  2  0  0  0
   73.5536   53.2080   40.1403 C   0  0  0  0  0  0
   74.1629   51.9154   39.6394 C   0  0  0  0  0  0
   75.5862   51.7783   40.1806 C   0  0  0  0  0  0
   72.6664   52.6907   41.9933 H   0  0  0  0  0  0
   72.5491   53.3463   39.7375 H   0  0  0  0  0  0
   74.1721   53.9906   39.7152 H   0  0  0  0  0  0
   73.5550   51.0645   39.9511 H   0  0  0  0  0  0
   74.1759   51.9052   38.5496 H   0  0  0  0  0  0
   76.2138   52.5768   39.7810 H   0  0  0  0  0  0
   75.9881   50.8598   39.7711 H   0  0  0  0  0  0
   74.0228   53.3179   44.1572 H   0  0  0  0  0  0
   78.2659   50.0552   41.5379 R   0  0  0  0  0  0
   73.3432   54.6822   42.1606 C   0  0  0  0  0  0
   72.0894   54.7663   42.9796 C   0  0  1  0  0  0
   71.3797   56.0965   43.0937 C   0  0  0  0  0  0
   70.7696   54.9819   42.2742 C   0  0  2  0  0  0
   69.5476   54.2853   42.7951 C   0  0  0  0  0  0
   73.2349   55.6065   40.9841 C   0  0  1  0  0  0
   73.6131   57.0598   41.1602 C   0  0  0  0  0  0
   74.5024   56.1394   40.3552 C   0  0  1  0  0  0
   75.8251   55.7256   40.9290 C   0  0  0  0  0  0
   74.1973   54.9719   42.7728 H   0  0  0  0  0  0
   72.1204   54.1087   43.8510 H   0  0  0  0  0  0
   70.9156   56.3667   44.0446 H   0  0  0  0  0  0
   71.7975   56.9631   42.5769 H   0  0  0  0  0  0
   70.7618   55.0711   41.1857 H   0  0  0  0  0  0
   69.6016   54.2209   43.8819 H   0  0  0  0  0  0
   68.6589   54.8473   42.5082 H   0  0  0  0  0  0
   69.4944   53.2814   42.3739 H   0  0  0  0  0  0
   72.3907   55.3558   40.3382 H   0  0  0  0  0  0
   73.0327   57.8228   40.6371 H   0  0  0  0  0  0
   73.9558   57.4006   42.1396 H   0  0  0  0  0  0
   74.5423   56.2604   39.2705 H   0  0  0  0  0  0
   75.7346   55.6182   42.0099 H   0  0  0  0  0  0
   76.1283   54.7736   40.4934 H   0  0  0  0  0  0
   76.5735   56.4844   40.7007 H   0  0  0  0  0  0
  1  2  1  0  0  0
  1  7  2  0  0  0
  1 22  1  0  0  0
  2  3  2  0  0  0
  2 13  1  0  0  0
  3  4  1  0  0  0
  3 10  1  0  0  0
  4  5  1  0  0  0
  4 21  1  0  0  0
  5  6  2  0  0  0
  5  7  1  0  0  0
  7  8  1  0  0  0
  8  9  3  0  0  0
 10 11  1  0  0  0
 10 14  1  0  0  0
 10 23  1  0  0  0
 11 12  1  0  0  0
 11 15  1  0  0  0
 11 16  1  0  0  0
 12 13  1  0  0  0
 12 17  1  0  0  0
 12 18  1  0  0  0
 13 19  1  0  0  0
 13 20  1  0  0  0
 23 24  1  0  0  0
 23 28  1  0  0  0
 23 32  1  0  0  0
 24 25  1  0  0  0
 24 26  1  0  0  0
 24 33  1  0  0  0
 25 26  1  0  0  0
 25 34  1  0  0  0
 25 35  1  0  0  0
 26 27  1  0  0  0
 26 36  1  0  0  0
 27 37  1  0  0  0
 27 38  1  0  0  0
 27 39  1  0  0  0
 28 29  1  0  0  0
 28 30  1  0  0  0
 28 40  1  0  0  0
 29 30  1  0  0  0
 29 41  1  0  0  0
 29 42  1  0  0  0
 30 31  1  0  0  0
 30 43  1  0  0  0
 31 44  1  0  0  0
 31 45  1  0  0  0
 31 46  1  0  0  0
M  END
> <b_m_subgroup_collapsed>
0

> <s_m_subgroup_title>
enumerate_136-out

> <s_m_subgroupid>
enumerate_136-out

$$$$
