14376-1
                    3D
 Schrodinger Suite 2024-3.
 45 49  0  0  1  0            999 V2000
   76.7152   51.2564   42.5117 C   0  0  0  0  0  0
   75.6469   51.8672   41.7091 C   0  0  0  0  0  0
   74.7156   52.5958   42.3599 C   0  0  0  0  0  0
   74.7624   52.7581   43.7471 N   0  0  0  0  0  0
   75.7023   52.2182   44.5484 C   0  0  0  0  0  0
   75.6665   52.3767   45.7684 O   0  0  0  0  0  0
   76.7303   51.4438   43.8559 C   0  0  0  0  0  0
   77.7066   50.8711   44.7216 C   0  0  0  0  0  0
   78.4723   50.4247   45.4646 N   0  0  0  0  0  0
   73.5301   53.2752   41.6754 C   0  0  2  0  0  0
   73.5536   53.2080   40.1403 C   0  0  0  0  0  0
   74.1629   51.9154   39.6394 C   0  0  0  0  0  0
   75.5862   51.7783   40.1806 C   0  0  0  0  0  0
   72.6664   52.6907   41.9933 H   0  0  0  0  0  0
   72.5491   53.3463   39.7375 H   0  0  0  0  0  0
   74.1721   53.9906   39.7152 H   0  0  0  0  0  0
   73.5550   51.0645   39.9511 H   0  0  0  0  0  0
   74.1759   51.9052   38.5496 H   0  0  0  0  0  0
   76.2138   52.5768   39.7810 H   0  0  0  0  0  0
   75.9881   50.8598   39.7711 H   0  0  0  0  0  0
   74.0228   53.3179   44.1572 H   0  0  0  0  0  0
   78.2659   50.0552   41.5379 R   0  0  0  0  0  0
   73.3432   54.6822   42.1606 C   0  0  1  0  0  0
   72.0672   54.7728   43.0206 C   0  0  0  0  0  0
   71.9336   56.2115   43.5493 C   0  0  2  0  0  0
   71.8481   57.2023   42.3635 C   0  0  0  0  0  0
   73.1175   57.0800   41.4866 C   0  0  1  0  0  0
   74.3679   57.3818   42.3309 C   0  0  0  0  0  0
   74.4286   56.3744   43.4960 C   0  0  1  0  0  0
   73.1836   56.5129   44.3943 C   0  0  0  0  0  0
   74.4767   55.0429   42.9631 O   0  0  0  0  0  0
   73.2517   55.6415   40.9574 C   0  0  0  0  0  0
   71.1913   54.4964   42.4327 H   0  0  0  0  0  0
   72.1237   54.0644   43.8480 H   0  0  0  0  0  0
   71.0398   56.2964   44.1682 H   0  0  0  0  0  0
   71.7423   58.2234   42.7327 H   0  0  0  0  0  0
   70.9573   57.0000   41.7670 H   0  0  0  0  0  0
   73.0588   57.7775   40.6505 H   0  0  0  0  0  0
   75.2693   57.3029   41.7219 H   0  0  0  0  0  0
   74.3372   58.4032   42.7117 H   0  0  0  0  0  0
   75.3300   56.5452   44.0853 H   0  0  0  0  0  0
   73.1289   57.5166   44.8172 H   0  0  0  0  0  0
   73.2522   55.8230   45.2362 H   0  0  0  0  0  0
   74.1415   55.5442   40.3341 H   0  0  0  0  0  0
   72.4000   55.3824   40.3276 H   0  0  0  0  0  0
  1  2  1  0  0  0
  1  7  2  0  0  0
  1 22  1  0  0  0
  2  3  2  0  0  0
  2 13  1  0  0  0
  3  4  1  0  0  0
  3 10  1  0  0  0
  4  5  1  0  0  0
  4 21  1  0  0  0
  5  6  2  0  0  0
  5  7  1  0  0  0
  7  8  1  0  0  0
  8  9  3  0  0  0
 10 11  1  0  0  0
 10 14  1  0  0  0
 10 23  1  0  0  0
 11 12  1  0  0  0
 11 15  1  0  0  0
 11 16  1  0  0  0
 12 13  1  0  0  0
 12 17  1  0  0  0
 12 18  1  0  0  0
 13 19  1  0  0  0
 13 20  1  0  0  0
 23 24  1  0  0  0
 23 31  1  0  0  0
 23 32  1  0  0  0
 24 25  1  0  0  0
 24 33  1  0  0  0
 24 34  1  0  0  0
 25 26  1  0  0  0
 25 30  1  0  0  0
 25 35  1  0  0  0
 26 27  1  0  0  0
 26 36  1  0  0  0
 26 37  1  0  0  0
 27 28  1  0  0  0
 27 32  1  0  0  0
 27 38  1  0  0  0
 28 29  1  0  0  0
 28 39  1  0  0  0
 28 40  1  0  0  0
 29 30  1  0  0  0
 29 31  1  0  0  0
 29 41  1  0  0  0
 30 42  1  0  0  0
 30 43  1  0  0  0
 32 44  1  0  0  0
 32 45  1  0  0  0
M  END
> <b_m_subgroup_collapsed>
0

> <s_m_subgroup_title>
enumerate_135-out

> <s_m_subgroupid>
enumerate_135-out

$$$$
