9786-4
                    3D
 Schrodinger Suite 2024-3.
 50 53  0  0  1  0            999 V2000
   76.7152   51.2564   42.5117 C   0  0  0  0  0  0
   75.6469   51.8672   41.7091 C   0  0  0  0  0  0
   74.7156   52.5958   42.3599 C   0  0  0  0  0  0
   74.7624   52.7581   43.7471 N   0  0  0  0  0  0
   75.7023   52.2182   44.5484 C   0  0  0  0  0  0
   75.6665   52.3767   45.7684 O   0  0  0  0  0  0
   76.7303   51.4438   43.8559 C   0  0  0  0  0  0
   77.7066   50.8711   44.7216 C   0  0  0  0  0  0
   78.4723   50.4247   45.4646 N   0  0  0  0  0  0
   73.5301   53.2752   41.6754 C   0  0  2  0  0  0
   73.5536   53.2080   40.1403 C   0  0  0  0  0  0
   74.1629   51.9154   39.6394 C   0  0  0  0  0  0
   75.5862   51.7783   40.1806 C   0  0  0  0  0  0
   72.6664   52.6907   41.9933 H   0  0  0  0  0  0
   72.5491   53.3463   39.7375 H   0  0  0  0  0  0
   74.1721   53.9906   39.7152 H   0  0  0  0  0  0
   73.5550   51.0645   39.9511 H   0  0  0  0  0  0
   74.1759   51.9052   38.5496 H   0  0  0  0  0  0
   76.2138   52.5768   39.7810 H   0  0  0  0  0  0
   75.9881   50.8598   39.7711 H   0  0  0  0  0  0
   74.0228   53.3179   44.1572 H   0  0  0  0  0  0
   78.2659   50.0552   41.5379 R   0  0  0  0  0  0
   73.3432   54.6822   42.1606 C   0  0  2  0  0  0
   72.0303   55.2696   41.6165 C   0  0  0  0  0  0
   72.3899   56.6564   41.0775 C   0  0  0  0  0  0
   73.8320   56.4989   40.5993 C   0  0  0  0  0  0
   74.4715   55.5988   41.6592 C   0  0  2  0  0  0
   75.5499   54.8930   41.1660 O   0  0  0  0  0  0
   76.7473   55.1328   41.8088 C   0  0  0  0  0  0
   77.2180   56.5203   41.4877 C   0  0  0  0  0  0
   76.8385   57.5869   42.2939 C   0  0  0  0  0  0
   77.2747   58.8725   41.9964 C   0  0  0  0  0  0
   78.0904   59.0916   40.8926 C   0  0  0  0  0  0
   78.4699   58.0250   40.0864 C   0  0  0  0  0  0
   78.0337   56.7394   40.3839 C   0  0  0  0  0  0
   73.3377   54.6436   43.2516 H   0  0  0  0  0  0
   71.6589   54.6456   40.8009 H   0  0  0  0  0  0
   71.2433   55.3100   42.3717 H   0  0  0  0  0  0
   72.3422   57.3945   41.8811 H   0  0  0  0  0  0
   71.7156   56.9906   40.2870 H   0  0  0  0  0  0
   74.3482   57.4541   40.4885 H   0  0  0  0  0  0
   73.8501   56.0031   39.6263 H   0  0  0  0  0  0
   74.8409   56.2116   42.4842 H   0  0  0  0  0  0
   76.6072   55.0367   42.8855 H   0  0  0  0  0  0
   77.4910   54.4100   41.4732 H   0  0  0  0  0  0
   76.2034   57.4164   43.1532 H   0  0  0  0  0  0
   76.9792   59.7029   42.6241 H   0  0  0  0  0  0
   78.4300   60.0925   40.6610 H   0  0  0  0  0  0
   79.1049   58.1955   39.2271 H   0  0  0  0  0  0
   78.3292   55.9090   39.7562 H   0  0  0  0  0  0
  1  2  1  0  0  0
  1  7  2  0  0  0
  1 22  1  0  0  0
  2  3  2  0  0  0
  2 13  1  0  0  0
  3  4  1  0  0  0
  3 10  1  0  0  0
  4  5  1  0  0  0
  4 21  1  0  0  0
  5  6  2  0  0  0
  5  7  1  0  0  0
  7  8  1  0  0  0
  8  9  3  0  0  0
 10 11  1  0  0  0
 10 14  1  0  0  0
 10 23  1  0  0  0
 11 12  1  0  0  0
 11 15  1  0  0  0
 11 16  1  0  0  0
 12 13  1  0  0  0
 12 17  1  0  0  0
 12 18  1  0  0  0
 13 19  1  0  0  0
 13 20  1  0  0  0
 23 24  1  0  0  0
 23 27  1  0  0  0
 23 36  1  0  0  0
 24 25  1  0  0  0
 24 37  1  0  0  0
 24 38  1  0  0  0
 25 26  1  0  0  0
 25 39  1  0  0  0
 25 40  1  0  0  0
 26 27  1  0  0  0
 26 41  1  0  0  0
 26 42  1  0  0  0
 27 28  1  0  0  0
 27 43  1  0  0  0
 28 29  1  0  0  0
 29 30  1  0  0  0
 29 44  1  0  0  0
 29 45  1  0  0  0
 30 31  2  0  0  0
 30 35  1  0  0  0
 31 32  1  0  0  0
 31 46  1  0  0  0
 32 33  2  0  0  0
 32 47  1  0  0  0
 33 34  1  0  0  0
 33 48  1  0  0  0
 34 35  2  0  0  0
 34 49  1  0  0  0
 35 50  1  0  0  0
M  END
> <b_m_subgroup_collapsed>
0

> <s_m_subgroup_title>
enumerate_135-out

> <s_m_subgroupid>
enumerate_135-out

$$$$
