7247-1
                    3D
 Schrodinger Suite 2024-3.
 43 45  0  0  1  0            999 V2000
   76.7152   51.2564   42.5117 C   0  0  0  0  0  0
   75.6469   51.8672   41.7091 C   0  0  0  0  0  0
   74.7156   52.5958   42.3599 C   0  0  0  0  0  0
   74.7624   52.7581   43.7471 N   0  0  0  0  0  0
   75.7023   52.2182   44.5484 C   0  0  0  0  0  0
   75.6665   52.3767   45.7684 O   0  0  0  0  0  0
   76.7303   51.4438   43.8559 C   0  0  0  0  0  0
   77.7066   50.8711   44.7216 C   0  0  0  0  0  0
   78.4723   50.4247   45.4646 N   0  0  0  0  0  0
   73.5301   53.2752   41.6754 C   0  0  2  0  0  0
   73.5536   53.2080   40.1403 C   0  0  0  0  0  0
   74.1629   51.9154   39.6394 C   0  0  0  0  0  0
   75.5862   51.7783   40.1806 C   0  0  0  0  0  0
   72.6664   52.6907   41.9933 H   0  0  0  0  0  0
   72.5491   53.3463   39.7375 H   0  0  0  0  0  0
   74.1721   53.9906   39.7152 H   0  0  0  0  0  0
   73.5550   51.0645   39.9511 H   0  0  0  0  0  0
   74.1759   51.9052   38.5496 H   0  0  0  0  0  0
   76.2138   52.5768   39.7810 H   0  0  0  0  0  0
   75.9881   50.8598   39.7711 H   0  0  0  0  0  0
   74.0228   53.3179   44.1572 H   0  0  0  0  0  0
   78.2659   50.0552   41.5379 R   0  0  0  0  0  0
   73.3582   54.5697   42.1217 O   0  0  0  0  0  0
   72.1910   55.1790   41.7083 C   0  0  0  0  0  0
   72.1315   56.5722   42.2608 C   0  0  1  0  0  0
   72.0965   56.5191   43.8087 C   0  0  0  0  0  0
   72.1368   57.8341   44.3743 O   0  0  0  0  0  0
   73.2521   58.6097   43.9215 C   0  0  0  0  0  0
   73.2965   58.6797   42.3745 C   0  0  0  0  0  0
   73.2832   57.3407   41.7747 N   0  0  0  0  0  0
   73.2334   57.4468   40.3194 C   0  0  0  0  0  0
   72.1679   55.2186   40.6193 H   0  0  0  0  0  0
   71.3355   54.6081   42.0693 H   0  0  0  0  0  0
   71.1996   56.9989   41.8829 H   0  0  0  0  0  0
   71.1860   56.0179   44.1396 H   0  0  0  0  0  0
   72.9231   55.9150   44.1883 H   0  0  0  0  0  0
   73.1753   59.6166   44.3338 H   0  0  0  0  0  0
   74.1858   58.1992   44.3116 H   0  0  0  0  0  0
   72.4567   59.2728   42.0057 H   0  0  0  0  0  0
   74.1948   59.2122   42.0559 H   0  0  0  0  0  0
   74.0919   58.0186   39.9672 H   0  0  0  0  0  0
   73.2570   56.4490   39.8814 H   0  0  0  0  0  0
   72.3140   57.9520   40.0232 H   0  0  0  0  0  0
  1  2  1  0  0  0
  1  7  2  0  0  0
  1 22  1  0  0  0
  2  3  2  0  0  0
  2 13  1  0  0  0
  3  4  1  0  0  0
  3 10  1  0  0  0
  4  5  1  0  0  0
  4 21  1  0  0  0
  5  6  2  0  0  0
  5  7  1  0  0  0
  7  8  1  0  0  0
  8  9  3  0  0  0
 10 11  1  0  0  0
 10 14  1  0  0  0
 10 23  1  0  0  0
 11 12  1  0  0  0
 11 15  1  0  0  0
 11 16  1  0  0  0
 12 13  1  0  0  0
 12 17  1  0  0  0
 12 18  1  0  0  0
 13 19  1  0  0  0
 13 20  1  0  0  0
 23 24  1  0  0  0
 24 25  1  0  0  0
 24 32  1  0  0  0
 24 33  1  0  0  0
 25 26  1  0  0  0
 25 30  1  0  0  0
 25 34  1  0  0  0
 26 27  1  0  0  0
 26 35  1  0  0  0
 26 36  1  0  0  0
 27 28  1  0  0  0
 28 29  1  0  0  0
 28 37  1  0  0  0
 28 38  1  0  0  0
 29 30  1  0  0  0
 29 39  1  0  0  0
 29 40  1  0  0  0
 30 31  1  0  0  0
 31 41  1  0  0  0
 31 42  1  0  0  0
 31 43  1  0  0  0
M  END
> <b_m_subgroup_collapsed>
0

> <s_m_subgroup_title>
enumerate_136-out

> <s_m_subgroupid>
enumerate_136-out

$$$$
