25024-1
                    3D
 Schrodinger Suite 2024-3.
 43 45  0  0  1  0            999 V2000
   76.7152   51.2564   42.5117 C   0  0  0  0  0  0
   75.6469   51.8672   41.7091 C   0  0  0  0  0  0
   74.7156   52.5958   42.3599 C   0  0  0  0  0  0
   74.7624   52.7581   43.7471 N   0  0  0  0  0  0
   75.7023   52.2182   44.5484 C   0  0  0  0  0  0
   75.6665   52.3767   45.7684 O   0  0  0  0  0  0
   76.7303   51.4438   43.8559 C   0  0  0  0  0  0
   77.7066   50.8711   44.7216 C   0  0  0  0  0  0
   78.4723   50.4247   45.4646 N   0  0  0  0  0  0
   73.5301   53.2752   41.6754 C   0  0  2  0  0  0
   73.5536   53.2080   40.1403 C   0  0  0  0  0  0
   74.1629   51.9154   39.6394 C   0  0  0  0  0  0
   75.5862   51.7783   40.1806 C   0  0  0  0  0  0
   72.6664   52.6907   41.9933 H   0  0  0  0  0  0
   72.5491   53.3463   39.7375 H   0  0  0  0  0  0
   74.1721   53.9906   39.7152 H   0  0  0  0  0  0
   73.5550   51.0645   39.9511 H   0  0  0  0  0  0
   74.1759   51.9052   38.5496 H   0  0  0  0  0  0
   76.2138   52.5768   39.7810 H   0  0  0  0  0  0
   75.9881   50.8598   39.7711 H   0  0  0  0  0  0
   74.0228   53.3179   44.1572 H   0  0  0  0  0  0
   78.2659   50.0552   41.5379 R   0  0  0  0  0  0
   73.3084   54.9449   42.2511 S   0  0  0  0  0  0
   72.0010   55.0166   42.9127 O   0  0  0  0  0  0
   74.5416   55.3455   42.9372 O   0  0  0  0  0  0
   73.2037   55.8629   40.7767 N   0  0  0  0  0  0
   73.0177   57.2757   41.0945 C   0  0  0  0  0  0
   72.9275   58.0665   39.8231 C   0  0  0  0  0  0
   71.6922   58.2783   39.2226 C   0  0  0  0  0  0
   71.6087   59.0111   38.0445 C   0  0  0  0  0  0
   72.7605   59.5320   37.4670 C   0  0  0  0  0  0
   72.6728   60.3017   36.2295 N   0  0  0  0  0  0
   73.9959   59.3202   38.0675 C   0  0  0  0  0  0
   74.0794   58.5875   39.2456 C   0  0  0  0  0  0
   72.0984   57.4015   41.6666 H   0  0  0  0  0  0
   73.8636   57.6301   41.6836 H   0  0  0  0  0  0
   70.7954   57.8728   39.6722 H   0  0  0  0  0  0
   70.6469   59.1760   37.5770 H   0  0  0  0  0  0
   73.5306   60.6895   35.7996 H   0  0  0  0  0  0
   71.7528   60.4594   35.7822 H   0  0  0  0  0  0
   74.8926   59.7257   37.6179 H   0  0  0  0  0  0
   75.0412   58.4226   39.7131 H   0  0  0  0  0  0
   72.4206   55.5344   40.2299 H   0  0  0  0  0  0
  1  2  1  0  0  0
  1  7  2  0  0  0
  1 22  1  0  0  0
  2  3  2  0  0  0
  2 13  1  0  0  0
  3  4  1  0  0  0
  3 10  1  0  0  0
  4  5  1  0  0  0
  4 21  1  0  0  0
  5  6  2  0  0  0
  5  7  1  0  0  0
  7  8  1  0  0  0
  8  9  3  0  0  0
 10 11  1  0  0  0
 10 14  1  0  0  0
 10 23  1  0  0  0
 11 12  1  0  0  0
 11 15  1  0  0  0
 11 16  1  0  0  0
 12 13  1  0  0  0
 12 17  1  0  0  0
 12 18  1  0  0  0
 13 19  1  0  0  0
 13 20  1  0  0  0
 23 24  2  0  0  0
 23 25  2  0  0  0
 23 26  1  0  0  0
 26 27  1  0  0  0
 26 43  1  0  0  0
 27 28  1  0  0  0
 27 35  1  0  0  0
 27 36  1  0  0  0
 28 29  2  0  0  0
 28 34  1  0  0  0
 29 30  1  0  0  0
 29 37  1  0  0  0
 30 31  2  0  0  0
 30 38  1  0  0  0
 31 32  1  0  0  0
 31 33  1  0  0  0
 32 39  1  0  0  0
 32 40  1  0  0  0
 33 34  2  0  0  0
 33 41  1  0  0  0
 34 42  1  0  0  0
M  END
> <b_m_subgroup_collapsed>
0

> <s_m_subgroup_title>
enumerate_136-out

> <s_m_subgroupid>
enumerate_136-out

$$$$
