5733-1
                    3D
 Schrodinger Suite 2024-3.
 45 46  0  0  1  0            999 V2000
   76.7152   51.2564   42.5117 C   0  0  0  0  0  0
   75.6469   51.8672   41.7091 C   0  0  0  0  0  0
   74.7156   52.5958   42.3599 C   0  0  0  0  0  0
   74.7624   52.7581   43.7471 N   0  0  0  0  0  0
   75.7023   52.2182   44.5484 C   0  0  0  0  0  0
   75.6665   52.3767   45.7684 O   0  0  0  0  0  0
   76.7303   51.4438   43.8559 C   0  0  0  0  0  0
   77.7066   50.8711   44.7216 C   0  0  0  0  0  0
   78.4723   50.4247   45.4646 N   0  0  0  0  0  0
   73.5301   53.2752   41.6754 C   0  0  2  0  0  0
   73.5536   53.2080   40.1403 C   0  0  0  0  0  0
   74.1629   51.9154   39.6394 C   0  0  0  0  0  0
   75.5862   51.7783   40.1806 C   0  0  0  0  0  0
   72.6664   52.6907   41.9933 H   0  0  0  0  0  0
   72.5491   53.3463   39.7375 H   0  0  0  0  0  0
   74.1721   53.9906   39.7152 H   0  0  0  0  0  0
   73.5550   51.0645   39.9511 H   0  0  0  0  0  0
   74.1759   51.9052   38.5496 H   0  0  0  0  0  0
   76.2138   52.5768   39.7810 H   0  0  0  0  0  0
   75.9881   50.8598   39.7711 H   0  0  0  0  0  0
   74.0228   53.3179   44.1572 H   0  0  0  0  0  0
   78.2659   50.0552   41.5379 R   0  0  0  0  0  0
   73.4592   58.7345   41.6991 C   0  0  0  0  0  0
   73.4094   57.2748   41.3574 C   0  0  0  0  0  0
   72.2408   56.6387   42.0500 C   0  0  0  0  0  0
   72.1910   55.1790   41.7083 C   0  0  0  0  0  0
   71.0224   54.5429   42.4009 C   0  0  0  0  0  0
   69.7538   55.2051   41.9516 C   0  0  0  0  0  0
   68.5852   54.5690   42.6442 C   0  0  0  0  0  0
   73.3582   54.5697   42.1217 O   0  0  0  0  0  0
   74.3084   59.1967   41.1958 H   0  0  0  0  0  0
   72.5373   59.2157   41.3726 H   0  0  0  0  0  0
   73.5681   58.8517   42.7773 H   0  0  0  0  0  0
   74.3313   56.7935   41.6840 H   0  0  0  0  0  0
   73.3006   57.1575   40.2792 H   0  0  0  0  0  0
   71.3189   57.1199   41.7235 H   0  0  0  0  0  0
   72.3497   56.7559   43.1282 H   0  0  0  0  0  0
   72.0822   55.0617   40.6301 H   0  0  0  0  0  0
   70.9863   53.4821   42.1526 H   0  0  0  0  0  0
   71.1313   54.6601   43.4791 H   0  0  0  0  0  0
   69.7900   56.2659   42.1999 H   0  0  0  0  0  0
   69.6449   55.0879   40.8734 H   0  0  0  0  0  0
   67.6633   55.0503   42.3176 H   0  0  0  0  0  0
   68.5490   53.5083   42.3959 H   0  0  0  0  0  0
   68.6941   54.6863   43.7224 H   0  0  0  0  0  0
  1  2  1  0  0  0
  1  7  2  0  0  0
  1 22  1  0  0  0
  2  3  2  0  0  0
  2 13  1  0  0  0
  3  4  1  0  0  0
  3 10  1  0  0  0
  4  5  1  0  0  0
  4 21  1  0  0  0
  5  6  2  0  0  0
  5  7  1  0  0  0
  7  8  1  0  0  0
  8  9  3  0  0  0
 10 11  1  0  0  0
 10 14  1  0  0  0
 10 30  1  0  0  0
 11 12  1  0  0  0
 11 15  1  0  0  0
 11 16  1  0  0  0
 12 13  1  0  0  0
 12 17  1  0  0  0
 12 18  1  0  0  0
 13 19  1  0  0  0
 13 20  1  0  0  0
 23 24  1  0  0  0
 23 31  1  0  0  0
 23 32  1  0  0  0
 23 33  1  0  0  0
 24 25  1  0  0  0
 24 34  1  0  0  0
 24 35  1  0  0  0
 25 26  1  0  0  0
 25 36  1  0  0  0
 25 37  1  0  0  0
 26 27  1  0  0  0
 26 30  1  0  0  0
 26 38  1  0  0  0
 27 28  1  0  0  0
 27 39  1  0  0  0
 27 40  1  0  0  0
 28 29  1  0  0  0
 28 41  1  0  0  0
 28 42  1  0  0  0
 29 43  1  0  0  0
 29 44  1  0  0  0
 29 45  1  0  0  0
M  END
> <b_m_subgroup_collapsed>
0

> <s_m_subgroup_title>
enumerate_136-out

> <s_m_subgroupid>
enumerate_136-out

$$$$
