37347-1
                    3D
 Schrodinger Suite 2024-3.
 43 45  0  0  1  0            999 V2000
   76.7152   51.2564   42.5117 C   0  0  0  0  0  0
   75.6469   51.8672   41.7091 C   0  0  0  0  0  0
   74.7156   52.5958   42.3599 C   0  0  0  0  0  0
   74.7624   52.7581   43.7471 N   0  0  0  0  0  0
   75.7023   52.2182   44.5484 C   0  0  0  0  0  0
   75.6665   52.3767   45.7684 O   0  0  0  0  0  0
   76.7303   51.4438   43.8559 C   0  0  0  0  0  0
   77.7066   50.8711   44.7216 C   0  0  0  0  0  0
   78.4723   50.4247   45.4646 N   0  0  0  0  0  0
   73.5301   53.2752   41.6754 C   0  0  2  0  0  0
   73.5536   53.2080   40.1403 C   0  0  0  0  0  0
   74.1629   51.9154   39.6394 C   0  0  0  0  0  0
   75.5862   51.7783   40.1806 C   0  0  0  0  0  0
   72.6664   52.6907   41.9933 H   0  0  0  0  0  0
   72.5491   53.3463   39.7375 H   0  0  0  0  0  0
   74.1721   53.9906   39.7152 H   0  0  0  0  0  0
   73.5550   51.0645   39.9511 H   0  0  0  0  0  0
   74.1759   51.9052   38.5496 H   0  0  0  0  0  0
   76.2138   52.5768   39.7810 H   0  0  0  0  0  0
   75.9881   50.8598   39.7711 H   0  0  0  0  0  0
   74.0228   53.3179   44.1572 H   0  0  0  0  0  0
   78.2659   50.0552   41.5379 R   0  0  0  0  0  0
   73.3432   54.6822   42.1606 C   0  0  0  0  0  0
   72.0775   54.6831   42.9655 C   0  0  0  0  0  0
   70.9320   54.2556   42.0966 C   0  0  0  0  0  0
   69.8156   54.2608   42.8230 F   0  0  0  0  0  0
   74.5220   55.1104   43.0508 C   0  0  0  0  0  0
   74.4307   56.6020   43.4262 C   0  0  0  0  0  0
   74.3284   57.3968   42.2409 O   0  0  0  0  0  0
   73.1718   57.1175   41.4463 C   0  0  0  0  0  0
   73.2018   55.6510   40.9744 C   0  0  0  0  0  0
   72.1779   53.9905   43.8012 H   0  0  0  0  0  0
   71.8898   55.6870   43.3463 H   0  0  0  0  0  0
   70.8139   54.9497   41.2645 H   0  0  0  0  0  0
   71.1031   53.2467   41.7211 H   0  0  0  0  0  0
   74.5582   54.4990   43.9536 H   0  0  0  0  0  0
   75.4619   54.9331   42.5254 H   0  0  0  0  0  0
   73.5766   56.7878   44.0812 H   0  0  0  0  0  0
   75.3185   56.9049   43.9831 H   0  0  0  0  0  0
   72.2629   57.3257   42.0149 H   0  0  0  0  0  0
   73.1592   57.7892   40.5868 H   0  0  0  0  0  0
   74.0395   55.5156   40.2882 H   0  0  0  0  0  0
   72.3008   55.4234   40.4031 H   0  0  0  0  0  0
  1  2  1  0  0  0
  1  7  2  0  0  0
  1 22  1  0  0  0
  2  3  2  0  0  0
  2 13  1  0  0  0
  3  4  1  0  0  0
  3 10  1  0  0  0
  4  5  1  0  0  0
  4 21  1  0  0  0
  5  6  2  0  0  0
  5  7  1  0  0  0
  7  8  1  0  0  0
  8  9  3  0  0  0
 10 11  1  0  0  0
 10 14  1  0  0  0
 10 23  1  0  0  0
 11 12  1  0  0  0
 11 15  1  0  0  0
 11 16  1  0  0  0
 12 13  1  0  0  0
 12 17  1  0  0  0
 12 18  1  0  0  0
 13 19  1  0  0  0
 13 20  1  0  0  0
 23 24  1  0  0  0
 23 27  1  0  0  0
 23 31  1  0  0  0
 24 25  1  0  0  0
 24 32  1  0  0  0
 24 33  1  0  0  0
 25 26  1  0  0  0
 25 34  1  0  0  0
 25 35  1  0  0  0
 27 28  1  0  0  0
 27 36  1  0  0  0
 27 37  1  0  0  0
 28 29  1  0  0  0
 28 38  1  0  0  0
 28 39  1  0  0  0
 29 30  1  0  0  0
 30 31  1  0  0  0
 30 40  1  0  0  0
 30 41  1  0  0  0
 31 42  1  0  0  0
 31 43  1  0  0  0
M  END
> <b_m_subgroup_collapsed>
0

> <s_m_subgroup_title>
enumerate_136-out

> <s_m_subgroupid>
enumerate_136-out

$$$$
