24554-1
                    3D
 Schrodinger Suite 2024-3.
 44 46  0  0  1  0            999 V2000
   76.7152   51.2564   42.5117 C   0  0  0  0  0  0
   75.6469   51.8672   41.7091 C   0  0  0  0  0  0
   74.7156   52.5958   42.3599 C   0  0  0  0  0  0
   74.7624   52.7581   43.7471 N   0  0  0  0  0  0
   75.7023   52.2182   44.5484 C   0  0  0  0  0  0
   75.6665   52.3767   45.7684 O   0  0  0  0  0  0
   76.7303   51.4438   43.8559 C   0  0  0  0  0  0
   77.7066   50.8711   44.7216 C   0  0  0  0  0  0
   78.4723   50.4247   45.4646 N   0  0  0  0  0  0
   73.5301   53.2752   41.6754 C   0  0  2  0  0  0
   73.5536   53.2080   40.1403 C   0  0  0  0  0  0
   74.1629   51.9154   39.6394 C   0  0  0  0  0  0
   75.5862   51.7783   40.1806 C   0  0  0  0  0  0
   72.6664   52.6907   41.9933 H   0  0  0  0  0  0
   72.5491   53.3463   39.7375 H   0  0  0  0  0  0
   74.1721   53.9906   39.7152 H   0  0  0  0  0  0
   73.5550   51.0645   39.9511 H   0  0  0  0  0  0
   74.1759   51.9052   38.5496 H   0  0  0  0  0  0
   76.2138   52.5768   39.7810 H   0  0  0  0  0  0
   75.9881   50.8598   39.7711 H   0  0  0  0  0  0
   74.0228   53.3179   44.1572 H   0  0  0  0  0  0
   78.2659   50.0552   41.5379 R   0  0  0  0  0  0
   73.3582   54.5697   42.1217 O   0  0  0  0  0  0
   72.2318   54.7763   42.8917 C   0  0  2  0  0  0
   71.0099   54.4316   42.0929 C   0  0  0  0  0  0
   72.1675   56.2161   43.3074 C   0  0  0  0  0  0
   70.9062   56.4832   44.1460 C   0  0  0  0  0  0
   70.9034   57.9138   44.7181 C   0  0  0  0  0  0
   72.1063   58.1445   45.4577 O   0  0  0  0  0  0
   73.3024   58.0316   44.6807 C   0  0  0  0  0  0
   73.4221   56.6067   44.1068 C   0  0  0  0  0  0
   72.2766   54.1438   43.7783 H   0  0  0  0  0  0
   70.1202   54.5948   42.7011 H   0  0  0  0  0  0
   70.9650   55.0641   41.2063 H   0  0  0  0  0  0
   71.0566   53.3853   41.7908 H   0  0  0  0  0  0
   72.1246   56.7985   42.3844 H   0  0  0  0  0  0
   70.0095   56.3181   43.5469 H   0  0  0  0  0  0
   70.8563   55.7704   44.9709 H   0  0  0  0  0  0
   70.8023   58.6528   43.9202 H   0  0  0  0  0  0
   70.0465   58.0533   45.3787 H   0  0  0  0  0  0
   73.3059   58.7757   43.8812 H   0  0  0  0  0  0
   74.1617   58.2554   45.3146 H   0  0  0  0  0  0
   73.5671   55.9036   44.9287 H   0  0  0  0  0  0
   74.3116   56.5294   43.4799 H   0  0  0  0  0  0
  1  2  1  0  0  0
  1  7  2  0  0  0
  1 22  1  0  0  0
  2  3  2  0  0  0
  2 13  1  0  0  0
  3  4  1  0  0  0
  3 10  1  0  0  0
  4  5  1  0  0  0
  4 21  1  0  0  0
  5  6  2  0  0  0
  5  7  1  0  0  0
  7  8  1  0  0  0
  8  9  3  0  0  0
 10 11  1  0  0  0
 10 14  1  0  0  0
 10 23  1  0  0  0
 11 12  1  0  0  0
 11 15  1  0  0  0
 11 16  1  0  0  0
 12 13  1  0  0  0
 12 17  1  0  0  0
 12 18  1  0  0  0
 13 19  1  0  0  0
 13 20  1  0  0  0
 23 24  1  0  0  0
 24 25  1  0  0  0
 24 26  1  0  0  0
 24 32  1  0  0  0
 25 33  1  0  0  0
 25 34  1  0  0  0
 25 35  1  0  0  0
 26 27  1  0  0  0
 26 31  1  0  0  0
 26 36  1  0  0  0
 27 28  1  0  0  0
 27 37  1  0  0  0
 27 38  1  0  0  0
 28 29  1  0  0  0
 28 39  1  0  0  0
 28 40  1  0  0  0
 29 30  1  0  0  0
 30 31  1  0  0  0
 30 41  1  0  0  0
 30 42  1  0  0  0
 31 43  1  0  0  0
 31 44  1  0  0  0
M  END
> <b_m_subgroup_collapsed>
0

> <s_m_subgroup_title>
enumerate_136-out

> <s_m_subgroupid>
enumerate_136-out

$$$$
