7465-2
                    3D
 Schrodinger Suite 2024-3.
 47 49  0  0  1  0            999 V2000
   76.7152   51.2564   42.5117 C   0  0  0  0  0  0
   75.6469   51.8672   41.7091 C   0  0  0  0  0  0
   74.7156   52.5958   42.3599 C   0  0  0  0  0  0
   74.7624   52.7581   43.7471 N   0  0  0  0  0  0
   75.7023   52.2182   44.5484 C   0  0  0  0  0  0
   75.6665   52.3767   45.7684 O   0  0  0  0  0  0
   76.7303   51.4438   43.8559 C   0  0  0  0  0  0
   77.7066   50.8711   44.7216 C   0  0  0  0  0  0
   78.4723   50.4247   45.4646 N   0  0  0  0  0  0
   73.5301   53.2752   41.6754 C   0  0  2  0  0  0
   73.5536   53.2080   40.1403 C   0  0  0  0  0  0
   74.1629   51.9154   39.6394 C   0  0  0  0  0  0
   75.5862   51.7783   40.1806 C   0  0  0  0  0  0
   72.6664   52.6907   41.9933 H   0  0  0  0  0  0
   72.5491   53.3463   39.7375 H   0  0  0  0  0  0
   74.1721   53.9906   39.7152 H   0  0  0  0  0  0
   73.5550   51.0645   39.9511 H   0  0  0  0  0  0
   74.1759   51.9052   38.5496 H   0  0  0  0  0  0
   76.2138   52.5768   39.7810 H   0  0  0  0  0  0
   75.9881   50.8598   39.7711 H   0  0  0  0  0  0
   74.0228   53.3179   44.1572 H   0  0  0  0  0  0
   78.2659   50.0552   41.5379 R   0  0  0  0  0  0
   72.7012   60.0044   45.1854 C   0  0  0  0  0  0
   73.0855   58.5925   44.8552 C   0  0  0  0  0  0
   74.1993   58.1105   45.0831 O   0  0  0  0  0  0
   72.0698   57.9109   44.2826 N   0  0  0  0  0  0
   70.8028   58.5954   43.9687 C   0  0  0  0  0  0
   70.7024   58.6625   42.4276 C   0  0  0  0  0  0
   70.8536   57.2782   41.7669 C   0  0  0  0  0  0
   72.1315   56.5722   42.2608 C   0  0  2  0  0  0
   72.1910   55.1790   41.7083 C   0  0  0  0  0  0
   73.3582   54.5697   42.1217 O   0  0  0  0  0  0
   72.2219   56.5232   43.8032 C   0  0  0  0  0  0
   71.6682   60.1795   44.8848 H   0  0  0  0  0  0
   72.7997   60.1662   46.2588 H   0  0  0  0  0  0
   73.3565   60.6934   44.6525 H   0  0  0  0  0  0
   70.7325   59.5942   44.4065 H   0  0  0  0  0  0
   69.9736   58.0114   44.3734 H   0  0  0  0  0  0
   71.4707   59.3362   42.0427 H   0  0  0  0  0  0
   69.7480   59.1072   42.1418 H   0  0  0  0  0  0
   70.8672   57.3742   40.6797 H   0  0  0  0  0  0
   69.9834   56.6640   42.0069 H   0  0  0  0  0  0
   73.0091   57.0867   41.8643 H   0  0  0  0  0  0
   72.1679   55.2186   40.6193 H   0  0  0  0  0  0
   71.3355   54.6081   42.0693 H   0  0  0  0  0  0
   71.4117   55.9147   44.2095 H   0  0  0  0  0  0
   73.1597   56.0634   44.1237 H   0  0  0  0  0  0
  1  2  1  0  0  0
  1  7  2  0  0  0
  1 22  1  0  0  0
  2  3  2  0  0  0
  2 13  1  0  0  0
  3  4  1  0  0  0
  3 10  1  0  0  0
  4  5  1  0  0  0
  4 21  1  0  0  0
  5  6  2  0  0  0
  5  7  1  0  0  0
  7  8  1  0  0  0
  8  9  3  0  0  0
 10 11  1  0  0  0
 10 14  1  0  0  0
 10 32  1  0  0  0
 11 12  1  0  0  0
 11 15  1  0  0  0
 11 16  1  0  0  0
 12 13  1  0  0  0
 12 17  1  0  0  0
 12 18  1  0  0  0
 13 19  1  0  0  0
 13 20  1  0  0  0
 23 24  1  0  0  0
 23 34  1  0  0  0
 23 35  1  0  0  0
 23 36  1  0  0  0
 24 25  2  0  0  0
 24 26  1  0  0  0
 26 27  1  0  0  0
 26 33  1  0  0  0
 27 28  1  0  0  0
 27 37  1  0  0  0
 27 38  1  0  0  0
 28 29  1  0  0  0
 28 39  1  0  0  0
 28 40  1  0  0  0
 29 30  1  0  0  0
 29 41  1  0  0  0
 29 42  1  0  0  0
 30 31  1  0  0  0
 30 33  1  0  0  0
 30 43  1  0  0  0
 31 32  1  0  0  0
 31 44  1  0  0  0
 31 45  1  0  0  0
 33 46  1  0  0  0
 33 47  1  0  0  0
M  END
> <b_m_subgroup_collapsed>
0

> <s_m_subgroup_title>
enumerate_135-out

> <s_m_subgroupid>
enumerate_135-out

$$$$
