14754-1
                    3D
 Schrodinger Suite 2024-3.
 42 43  0  0  1  0            999 V2000
   76.7152   51.2564   42.5117 C   0  0  0  0  0  0
   75.6469   51.8672   41.7091 C   0  0  0  0  0  0
   74.7156   52.5958   42.3599 C   0  0  0  0  0  0
   74.7624   52.7581   43.7471 N   0  0  0  0  0  0
   75.7023   52.2182   44.5484 C   0  0  0  0  0  0
   75.6665   52.3767   45.7684 O   0  0  0  0  0  0
   76.7303   51.4438   43.8559 C   0  0  0  0  0  0
   77.7066   50.8711   44.7216 C   0  0  0  0  0  0
   78.4723   50.4247   45.4646 N   0  0  0  0  0  0
   73.5301   53.2752   41.6754 C   0  0  2  0  0  0
   73.5536   53.2080   40.1403 C   0  0  0  0  0  0
   74.1629   51.9154   39.6394 C   0  0  0  0  0  0
   75.5862   51.7783   40.1806 C   0  0  0  0  0  0
   72.6664   52.6907   41.9933 H   0  0  0  0  0  0
   72.5491   53.3463   39.7375 H   0  0  0  0  0  0
   74.1721   53.9906   39.7152 H   0  0  0  0  0  0
   73.5550   51.0645   39.9511 H   0  0  0  0  0  0
   74.1759   51.9052   38.5496 H   0  0  0  0  0  0
   76.2138   52.5768   39.7810 H   0  0  0  0  0  0
   75.9881   50.8598   39.7711 H   0  0  0  0  0  0
   74.0228   53.3179   44.1572 H   0  0  0  0  0  0
   78.2659   50.0552   41.5379 R   0  0  0  0  0  0
   74.9697   56.4115   44.5486 C   0  0  0  0  0  0
   73.6097   56.7541   44.0165 C   0  0  0  0  0  0
   73.6861   56.9371   42.5297 C   0  0  0  0  0  0
   72.3261   57.2797   41.9976 C   0  0  0  0  0  0
   74.6421   58.0482   42.2111 C   0  0  0  0  0  0
   74.1663   55.6664   41.8935 C   0  0  0  0  0  0
   75.1842   55.5532   41.2168 O   0  0  0  0  0  0
   73.3482   54.6447   42.1476 N   0  0  0  0  0  0
   74.9142   56.2785   45.6290 H   0  0  0  0  0  0
   75.6644   57.2188   44.3171 H   0  0  0  0  0  0
   75.3187   55.4881   44.0863 H   0  0  0  0  0  0
   72.9150   55.9467   44.2480 H   0  0  0  0  0  0
   73.2608   57.6774   44.4788 H   0  0  0  0  0  0
   71.9771   58.2031   42.4599 H   0  0  0  0  0  0
   72.3816   57.4127   40.9172 H   0  0  0  0  0  0
   71.6314   56.4724   42.2291 H   0  0  0  0  0  0
   74.2931   58.9715   42.6734 H   0  0  0  0  0  0
   75.6304   57.7992   42.5977 H   0  0  0  0  0  0
   74.6976   58.1812   41.1307 H   0  0  0  0  0  0
   72.5027   54.6932   42.6979 H   0  0  0  0  0  0
  1  2  1  0  0  0
  1  7  2  0  0  0
  1 22  1  0  0  0
  2  3  2  0  0  0
  2 13  1  0  0  0
  3  4  1  0  0  0
  3 10  1  0  0  0
  4  5  1  0  0  0
  4 21  1  0  0  0
  5  6  2  0  0  0
  5  7  1  0  0  0
  7  8  1  0  0  0
  8  9  3  0  0  0
 10 11  1  0  0  0
 10 14  1  0  0  0
 10 30  1  0  0  0
 11 12  1  0  0  0
 11 15  1  0  0  0
 11 16  1  0  0  0
 12 13  1  0  0  0
 12 17  1  0  0  0
 12 18  1  0  0  0
 13 19  1  0  0  0
 13 20  1  0  0  0
 23 24  1  0  0  0
 23 31  1  0  0  0
 23 32  1  0  0  0
 23 33  1  0  0  0
 24 25  1  0  0  0
 24 34  1  0  0  0
 24 35  1  0  0  0
 25 26  1  0  0  0
 25 27  1  0  0  0
 25 28  1  0  0  0
 26 36  1  0  0  0
 26 37  1  0  0  0
 26 38  1  0  0  0
 27 39  1  0  0  0
 27 40  1  0  0  0
 27 41  1  0  0  0
 28 29  2  0  0  0
 28 30  1  0  0  0
 30 42  1  0  0  0
M  END
> <b_m_subgroup_collapsed>
0

> <s_m_subgroup_title>
enumerate_135-out

> <s_m_subgroupid>
enumerate_135-out

$$$$
