27310-1
                    3D
 Schrodinger Suite 2024-3.
 42 44  0  0  1  0            999 V2000
   76.7152   51.2564   42.5117 C   0  0  0  0  0  0
   75.6469   51.8672   41.7091 C   0  0  0  0  0  0
   74.7156   52.5958   42.3599 C   0  0  0  0  0  0
   74.7624   52.7581   43.7471 N   0  0  0  0  0  0
   75.7023   52.2182   44.5484 C   0  0  0  0  0  0
   75.6665   52.3767   45.7684 O   0  0  0  0  0  0
   76.7303   51.4438   43.8559 C   0  0  0  0  0  0
   77.7066   50.8711   44.7216 C   0  0  0  0  0  0
   78.4723   50.4247   45.4646 N   0  0  0  0  0  0
   73.5301   53.2752   41.6754 C   0  0  2  0  0  0
   73.5536   53.2080   40.1403 C   0  0  0  0  0  0
   74.1629   51.9154   39.6394 C   0  0  0  0  0  0
   75.5862   51.7783   40.1806 C   0  0  0  0  0  0
   72.6664   52.6907   41.9933 H   0  0  0  0  0  0
   72.5491   53.3463   39.7375 H   0  0  0  0  0  0
   74.1721   53.9906   39.7152 H   0  0  0  0  0  0
   73.5550   51.0645   39.9511 H   0  0  0  0  0  0
   74.1759   51.9052   38.5496 H   0  0  0  0  0  0
   76.2138   52.5768   39.7810 H   0  0  0  0  0  0
   75.9881   50.8598   39.7711 H   0  0  0  0  0  0
   74.0228   53.3179   44.1572 H   0  0  0  0  0  0
   78.2659   50.0552   41.5379 R   0  0  0  0  0  0
   73.3432   54.6822   42.1606 C   0  0  0  0  0  0
   73.2349   55.6065   40.9841 C   0  0  0  0  0  0
   72.0894   54.7663   42.9796 C   0  0  0  0  0  0
   74.5185   55.0809   43.0030 C   0  0  0  0  0  0
   75.7723   54.9968   42.1840 C   0  0  0  0  0  0
   76.4797   56.2762   41.7984 C   0  0  0  0  0  0
   77.0916   55.3553   42.8297 C   0  0  0  0  0  0
   73.0991   56.6289   41.3367 H   0  0  0  0  0  0
   74.1460   55.5454   40.3889 H   0  0  0  0  0  0
   72.3808   55.3168   40.3719 H   0  0  0  0  0  0
   71.9536   55.7888   43.3322 H   0  0  0  0  0  0
   71.2354   54.4766   42.3674 H   0  0  0  0  0  0
   72.1681   54.0947   43.8345 H   0  0  0  0  0  0
   74.5972   54.4092   43.8579 H   0  0  0  0  0  0
   74.3827   56.1033   43.3556 H   0  0  0  0  0  0
   75.7427   54.1738   41.4666 H   0  0  0  0  0  0
   76.0603   57.2299   42.1258 H   0  0  0  0  0  0
   76.9435   56.3457   40.8121 H   0  0  0  0  0  0
   77.9823   54.7824   42.5628 H   0  0  0  0  0  0
   77.0990   55.6666   43.8765 H   0  0  0  0  0  0
  1  2  1  0  0  0
  1  7  2  0  0  0
  1 22  1  0  0  0
  2  3  2  0  0  0
  2 13  1  0  0  0
  3  4  1  0  0  0
  3 10  1  0  0  0
  4  5  1  0  0  0
  4 21  1  0  0  0
  5  6  2  0  0  0
  5  7  1  0  0  0
  7  8  1  0  0  0
  8  9  3  0  0  0
 10 11  1  0  0  0
 10 14  1  0  0  0
 10 23  1  0  0  0
 11 12  1  0  0  0
 11 15  1  0  0  0
 11 16  1  0  0  0
 12 13  1  0  0  0
 12 17  1  0  0  0
 12 18  1  0  0  0
 13 19  1  0  0  0
 13 20  1  0  0  0
 23 24  1  0  0  0
 23 25  1  0  0  0
 23 26  1  0  0  0
 24 30  1  0  0  0
 24 31  1  0  0  0
 24 32  1  0  0  0
 25 33  1  0  0  0
 25 34  1  0  0  0
 25 35  1  0  0  0
 26 27  1  0  0  0
 26 36  1  0  0  0
 26 37  1  0  0  0
 27 28  1  0  0  0
 27 29  1  0  0  0
 27 38  1  0  0  0
 28 29  1  0  0  0
 28 39  1  0  0  0
 28 40  1  0  0  0
 29 41  1  0  0  0
 29 42  1  0  0  0
M  END
> <b_m_subgroup_collapsed>
0

> <s_m_subgroup_title>
enumerate_135-out

> <s_m_subgroupid>
enumerate_135-out

$$$$
