22950-7
                    3D
 Schrodinger Suite 2024-3.
 45 48  0  0  1  0            999 V2000
   76.7152   51.2564   42.5117 C   0  0  0  0  0  0
   75.6469   51.8672   41.7091 C   0  0  0  0  0  0
   74.7156   52.5958   42.3599 C   0  0  0  0  0  0
   74.7624   52.7581   43.7471 N   0  0  0  0  0  0
   75.7023   52.2182   44.5484 C   0  0  0  0  0  0
   75.6665   52.3767   45.7684 O   0  0  0  0  0  0
   76.7303   51.4438   43.8559 C   0  0  0  0  0  0
   77.7066   50.8711   44.7216 C   0  0  0  0  0  0
   78.4723   50.4247   45.4646 N   0  0  0  0  0  0
   73.5301   53.2752   41.6754 C   0  0  2  0  0  0
   73.5536   53.2080   40.1403 C   0  0  0  0  0  0
   74.1629   51.9154   39.6394 C   0  0  0  0  0  0
   75.5862   51.7783   40.1806 C   0  0  0  0  0  0
   72.6664   52.6907   41.9933 H   0  0  0  0  0  0
   72.5491   53.3463   39.7375 H   0  0  0  0  0  0
   74.1721   53.9906   39.7152 H   0  0  0  0  0  0
   73.5550   51.0645   39.9511 H   0  0  0  0  0  0
   74.1759   51.9052   38.5496 H   0  0  0  0  0  0
   76.2138   52.5768   39.7810 H   0  0  0  0  0  0
   75.9881   50.8598   39.7711 H   0  0  0  0  0  0
   74.0228   53.3179   44.1572 H   0  0  0  0  0  0
   78.2659   50.0552   41.5379 R   0  0  0  0  0  0
   73.3582   54.5697   42.1217 O   0  0  0  0  0  0
   72.1910   55.1790   41.7083 C   0  0  2  0  0  0
   72.5154   56.4516   40.8925 C   0  0  0  0  0  0
   73.0704   57.6019   41.7732 C   0  0  0  0  0  0
   72.2360   57.8421   42.9190 O   0  0  0  0  0  0
   72.0764   56.6742   43.7212 C   0  0  1  0  0  0
   71.1871   56.8405   44.9486 C   0  0  0  0  0  0
   70.6709   55.4108   45.2386 C   0  0  0  0  0  0
   70.9982   54.5597   43.9903 C   0  0  0  0  0  0
   71.3491   55.5972   42.9215 C   0  0  2  0  0  0
   71.6581   54.4498   41.0954 H   0  0  0  0  0  0
   73.2203   56.2206   40.0927 H   0  0  0  0  0  0
   71.6074   56.8014   40.3986 H   0  0  0  0  0  0
   74.0868   57.3718   42.1002 H   0  0  0  0  0  0
   73.1426   58.5198   41.1882 H   0  0  0  0  0  0
   73.0700   56.3396   44.0354 H   0  0  0  0  0  0
   71.7273   57.2732   45.7914 H   0  0  0  0  0  0
   70.3537   57.5054   44.7153 H   0  0  0  0  0  0
   71.1490   54.9875   46.1242 H   0  0  0  0  0  0
   69.5971   55.4267   45.4355 H   0  0  0  0  0  0
   70.1688   53.9160   43.6918 H   0  0  0  0  0  0
   71.8567   53.9147   44.1902 H   0  0  0  0  0  0
   70.4120   56.0194   42.5472 H   0  0  0  0  0  0
  1  2  1  0  0  0
  1  7  2  0  0  0
  1 22  1  0  0  0
  2  3  2  0  0  0
  2 13  1  0  0  0
  3  4  1  0  0  0
  3 10  1  0  0  0
  4  5  1  0  0  0
  4 21  1  0  0  0
  5  6  2  0  0  0
  5  7  1  0  0  0
  7  8  1  0  0  0
  8  9  3  0  0  0
 10 11  1  0  0  0
 10 14  1  0  0  0
 10 23  1  0  0  0
 11 12  1  0  0  0
 11 15  1  0  0  0
 11 16  1  0  0  0
 12 13  1  0  0  0
 12 17  1  0  0  0
 12 18  1  0  0  0
 13 19  1  0  0  0
 13 20  1  0  0  0
 23 24  1  0  0  0
 24 25  1  0  0  0
 24 32  1  0  0  0
 24 33  1  0  0  0
 25 26  1  0  0  0
 25 34  1  0  0  0
 25 35  1  0  0  0
 26 27  1  0  0  0
 26 36  1  0  0  0
 26 37  1  0  0  0
 27 28  1  0  0  0
 28 29  1  0  0  0
 28 32  1  0  0  0
 28 38  1  0  0  0
 29 30  1  0  0  0
 29 39  1  0  0  0
 29 40  1  0  0  0
 30 31  1  0  0  0
 30 41  1  0  0  0
 30 42  1  0  0  0
 31 32  1  0  0  0
 31 43  1  0  0  0
 31 44  1  0  0  0
 32 45  1  0  0  0
M  END
> <b_m_subgroup_collapsed>
0

> <s_m_subgroup_title>
enumerate_135-out

> <s_m_subgroupid>
enumerate_135-out

$$$$
