26169-1
                    3D
 Schrodinger Suite 2024-3.
 42 44  0  0  1  0            999 V2000
   76.7152   51.2564   42.5117 C   0  0  0  0  0  0
   75.6469   51.8672   41.7091 C   0  0  0  0  0  0
   74.7156   52.5958   42.3599 C   0  0  0  0  0  0
   74.7624   52.7581   43.7471 N   0  0  0  0  0  0
   75.7023   52.2182   44.5484 C   0  0  0  0  0  0
   75.6665   52.3767   45.7684 O   0  0  0  0  0  0
   76.7303   51.4438   43.8559 C   0  0  0  0  0  0
   77.7066   50.8711   44.7216 C   0  0  0  0  0  0
   78.4723   50.4247   45.4646 N   0  0  0  0  0  0
   73.5301   53.2752   41.6754 C   0  0  2  0  0  0
   73.5536   53.2080   40.1403 C   0  0  0  0  0  0
   74.1629   51.9154   39.6394 C   0  0  0  0  0  0
   75.5862   51.7783   40.1806 C   0  0  0  0  0  0
   72.6664   52.6907   41.9933 H   0  0  0  0  0  0
   72.5491   53.3463   39.7375 H   0  0  0  0  0  0
   74.1721   53.9906   39.7152 H   0  0  0  0  0  0
   73.5550   51.0645   39.9511 H   0  0  0  0  0  0
   74.1759   51.9052   38.5496 H   0  0  0  0  0  0
   76.2138   52.5768   39.7810 H   0  0  0  0  0  0
   75.9881   50.8598   39.7711 H   0  0  0  0  0  0
   74.0228   53.3179   44.1572 H   0  0  0  0  0  0
   78.2659   50.0552   41.5379 R   0  0  0  0  0  0
   71.9720   60.1222   39.3071 C   0  0  0  0  0  0
   72.7980   59.3208   40.2691 C   0  0  0  0  0  0
   72.3133   57.9013   40.2823 C   0  0  0  0  0  0
   73.1393   57.0999   41.2444 C   0  0  0  0  0  0
   72.6546   55.6804   41.2576 C   0  0  2  0  0  0
   71.9476   55.1618   42.4893 C   0  0  0  0  0  0
   73.3432   54.6822   42.1606 C   0  0  1  0  0  0
   72.3242   61.1537   39.2975 H   0  0  0  0  0  0
   72.0643   59.6975   38.3075 H   0  0  0  0  0  0
   70.9273   60.0979   39.6172 H   0  0  0  0  0  0
   72.7057   59.7456   41.2687 H   0  0  0  0  0  0
   73.8426   59.3452   39.9590 H   0  0  0  0  0  0
   72.4056   57.4766   39.2828 H   0  0  0  0  0  0
   71.2686   57.8770   40.5924 H   0  0  0  0  0  0
   73.0470   57.5247   42.2440 H   0  0  0  0  0  0
   74.1839   57.1243   40.9343 H   0  0  0  0  0  0
   72.3103   55.3523   40.2745 H   0  0  0  0  0  0
   71.1100   54.4719   42.3654 H   0  0  0  0  0  0
   71.8072   55.8335   43.3389 H   0  0  0  0  0  0
   74.1765   55.0194   42.7808 H   0  0  0  0  0  0
  1  2  1  0  0  0
  1  7  2  0  0  0
  1 22  1  0  0  0
  2  3  2  0  0  0
  2 13  1  0  0  0
  3  4  1  0  0  0
  3 10  1  0  0  0
  4  5  1  0  0  0
  4 21  1  0  0  0
  5  6  2  0  0  0
  5  7  1  0  0  0
  7  8  1  0  0  0
  8  9  3  0  0  0
 10 11  1  0  0  0
 10 14  1  0  0  0
 10 29  1  0  0  0
 11 12  1  0  0  0
 11 15  1  0  0  0
 11 16  1  0  0  0
 12 13  1  0  0  0
 12 17  1  0  0  0
 12 18  1  0  0  0
 13 19  1  0  0  0
 13 20  1  0  0  0
 23 24  1  0  0  0
 23 30  1  0  0  0
 23 31  1  0  0  0
 23 32  1  0  0  0
 24 25  1  0  0  0
 24 33  1  0  0  0
 24 34  1  0  0  0
 25 26  1  0  0  0
 25 35  1  0  0  0
 25 36  1  0  0  0
 26 27  1  0  0  0
 26 37  1  0  0  0
 26 38  1  0  0  0
 27 28  1  0  0  0
 27 29  1  0  0  0
 27 39  1  0  0  0
 28 29  1  0  0  0
 28 40  1  0  0  0
 28 41  1  0  0  0
 29 42  1  0  0  0
M  END
> <b_m_subgroup_collapsed>
0

> <s_m_subgroup_title>
enumerate_136-out

> <s_m_subgroupid>
enumerate_136-out

$$$$
