19769-1
                    3D
 Schrodinger Suite 2024-3.
 41 43  0  0  1  0            999 V2000
   76.7152   51.2564   42.5117 C   0  0  0  0  0  0
   75.6469   51.8672   41.7091 C   0  0  0  0  0  0
   74.7156   52.5958   42.3599 C   0  0  0  0  0  0
   74.7624   52.7581   43.7471 N   0  0  0  0  0  0
   75.7023   52.2182   44.5484 C   0  0  0  0  0  0
   75.6665   52.3767   45.7684 O   0  0  0  0  0  0
   76.7303   51.4438   43.8559 C   0  0  0  0  0  0
   77.7066   50.8711   44.7216 C   0  0  0  0  0  0
   78.4723   50.4247   45.4646 N   0  0  0  0  0  0
   73.5301   53.2752   41.6754 C   0  0  2  0  0  0
   73.5536   53.2080   40.1403 C   0  0  0  0  0  0
   74.1629   51.9154   39.6394 C   0  0  0  0  0  0
   75.5862   51.7783   40.1806 C   0  0  0  0  0  0
   72.6664   52.6907   41.9933 H   0  0  0  0  0  0
   72.5491   53.3463   39.7375 H   0  0  0  0  0  0
   74.1721   53.9906   39.7152 H   0  0  0  0  0  0
   73.5550   51.0645   39.9511 H   0  0  0  0  0  0
   74.1759   51.9052   38.5496 H   0  0  0  0  0  0
   76.2138   52.5768   39.7810 H   0  0  0  0  0  0
   75.9881   50.8598   39.7711 H   0  0  0  0  0  0
   74.0228   53.3179   44.1572 H   0  0  0  0  0  0
   78.2659   50.0552   41.5379 R   0  0  0  0  0  0
   73.3432   54.6822   42.1606 C   0  0  0  0  0  0
   74.2576   55.6064   41.8198 C   0  0  0  0  0  0
   74.1462   57.0627   42.2480 C   0  0  0  0  0  0
   74.4462   57.9653   41.0881 C   0  0  0  0  0  0
   75.1619   57.3692   43.3084 C   0  0  0  0  0  0
   72.8202   57.3423   42.7208 O   0  0  0  0  0  0
   72.3133   56.4106   43.6812 C   0  0  0  0  0  0
   72.1439   55.0154   43.0345 C   0  0  0  0  0  0
   75.0999   55.3051   41.2114 H   0  0  0  0  0  0
   75.4518   57.7620   40.7200 H   0  0  0  0  0  0
   73.7243   57.7853   40.2914 H   0  0  0  0  0  0
   74.3803   59.0046   41.4100 H   0  0  0  0  0  0
   76.1602   57.1503   42.9294 H   0  0  0  0  0  0
   75.0988   58.4234   43.5780 H   0  0  0  0  0  0
   74.9648   56.7567   44.1882 H   0  0  0  0  0  0
   71.3566   56.7668   44.0658 H   0  0  0  0  0  0
   72.9897   56.3598   44.5376 H   0  0  0  0  0  0
   71.2415   54.9907   42.4224 H   0  0  0  0  0  0
   72.0162   54.2598   43.8107 H   0  0  0  0  0  0
  1  2  1  0  0  0
  1  7  2  0  0  0
  1 22  1  0  0  0
  2  3  2  0  0  0
  2 13  1  0  0  0
  3  4  1  0  0  0
  3 10  1  0  0  0
  4  5  1  0  0  0
  4 21  1  0  0  0
  5  6  2  0  0  0
  5  7  1  0  0  0
  7  8  1  0  0  0
  8  9  3  0  0  0
 10 11  1  0  0  0
 10 14  1  0  0  0
 10 23  1  0  0  0
 11 12  1  0  0  0
 11 15  1  0  0  0
 11 16  1  0  0  0
 12 13  1  0  0  0
 12 17  1  0  0  0
 12 18  1  0  0  0
 13 19  1  0  0  0
 13 20  1  0  0  0
 23 24  2  0  0  0
 23 30  1  0  0  0
 24 25  1  0  0  0
 24 31  1  0  0  0
 25 26  1  0  0  0
 25 27  1  0  0  0
 25 28  1  0  0  0
 26 32  1  0  0  0
 26 33  1  0  0  0
 26 34  1  0  0  0
 27 35  1  0  0  0
 27 36  1  0  0  0
 27 37  1  0  0  0
 28 29  1  0  0  0
 29 30  1  0  0  0
 29 38  1  0  0  0
 29 39  1  0  0  0
 30 40  1  0  0  0
 30 41  1  0  0  0
M  END
> <b_m_subgroup_collapsed>
0

> <s_m_subgroup_title>
enumerate_135-out

> <s_m_subgroupid>
enumerate_135-out

$$$$
