13882-2
                    3D
 Schrodinger Suite 2024-3.
 46 49  0  0  1  0            999 V2000
   76.7152   51.2564   42.5117 C   0  0  0  0  0  0
   75.6469   51.8672   41.7091 C   0  0  0  0  0  0
   74.7156   52.5958   42.3599 C   0  0  0  0  0  0
   74.7624   52.7581   43.7471 N   0  0  0  0  0  0
   75.7023   52.2182   44.5484 C   0  0  0  0  0  0
   75.6665   52.3767   45.7684 O   0  0  0  0  0  0
   76.7303   51.4438   43.8559 C   0  0  0  0  0  0
   77.7066   50.8711   44.7216 C   0  0  0  0  0  0
   78.4723   50.4247   45.4646 N   0  0  0  0  0  0
   73.5301   53.2752   41.6754 C   0  0  2  0  0  0
   73.5536   53.2080   40.1403 C   0  0  0  0  0  0
   74.1629   51.9154   39.6394 C   0  0  0  0  0  0
   75.5862   51.7783   40.1806 C   0  0  0  0  0  0
   72.6664   52.6907   41.9933 H   0  0  0  0  0  0
   72.5491   53.3463   39.7375 H   0  0  0  0  0  0
   74.1721   53.9906   39.7152 H   0  0  0  0  0  0
   73.5550   51.0645   39.9511 H   0  0  0  0  0  0
   74.1759   51.9052   38.5496 H   0  0  0  0  0  0
   76.2138   52.5768   39.7810 H   0  0  0  0  0  0
   75.9881   50.8598   39.7711 H   0  0  0  0  0  0
   74.0228   53.3179   44.1572 H   0  0  0  0  0  0
   78.2659   50.0552   41.5379 R   0  0  0  0  0  0
   73.3432   54.6822   42.1606 C   0  0  1  0  0  0
   72.6546   55.6804   41.2576 C   0  0  0  0  0  0
   71.9476   55.1618   42.4893 C   0  0  2  0  0  0
   71.7548   56.0844   43.6562 C   0  0  0  0  0  0
   70.5022   56.9570   43.4384 C   0  0  0  0  0  0
   70.2158   57.8600   44.6551 C   0  0  0  0  0  0
   70.1261   57.0468   45.9622 C   0  0  0  0  0  0
   71.3787   56.1743   46.1800 C   0  0  0  0  0  0
   71.6651   55.2713   44.9633 C   0  0  0  0  0  0
   74.1765   55.0194   42.7808 H   0  0  0  0  0  0
   73.0075   56.7139   41.2480 H   0  0  0  0  0  0
   72.3103   55.3523   40.2745 H   0  0  0  0  0  0
   71.1100   54.4719   42.3654 H   0  0  0  0  0  0
   72.6405   56.7221   43.6857 H   0  0  0  0  0  0
   70.6223   57.5660   42.5409 H   0  0  0  0  0  0
   69.6398   56.3138   43.2530 H   0  0  0  0  0  0
   71.0063   58.6074   44.7463 H   0  0  0  0  0  0
   69.2910   58.4175   44.4974 H   0  0  0  0  0  0
   69.9858   57.7181   46.8112 H   0  0  0  0  0  0
   69.2404   56.4092   45.9328 H   0  0  0  0  0  0
   72.2411   56.8175   46.3654 H   0  0  0  0  0  0
   71.2586   55.5653   47.0776 H   0  0  0  0  0  0
   70.8746   54.5239   44.8721 H   0  0  0  0  0  0
   72.5899   54.7138   45.1210 H   0  0  0  0  0  0
  1  2  1  0  0  0
  1  7  2  0  0  0
  1 22  1  0  0  0
  2  3  2  0  0  0
  2 13  1  0  0  0
  3  4  1  0  0  0
  3 10  1  0  0  0
  4  5  1  0  0  0
  4 21  1  0  0  0
  5  6  2  0  0  0
  5  7  1  0  0  0
  7  8  1  0  0  0
  8  9  3  0  0  0
 10 11  1  0  0  0
 10 14  1  0  0  0
 10 23  1  0  0  0
 11 12  1  0  0  0
 11 15  1  0  0  0
 11 16  1  0  0  0
 12 13  1  0  0  0
 12 17  1  0  0  0
 12 18  1  0  0  0
 13 19  1  0  0  0
 13 20  1  0  0  0
 23 24  1  0  0  0
 23 25  1  0  0  0
 23 32  1  0  0  0
 24 25  1  0  0  0
 24 33  1  0  0  0
 24 34  1  0  0  0
 25 26  1  0  0  0
 25 35  1  0  0  0
 26 27  1  0  0  0
 26 31  1  0  0  0
 26 36  1  0  0  0
 27 28  1  0  0  0
 27 37  1  0  0  0
 27 38  1  0  0  0
 28 29  1  0  0  0
 28 39  1  0  0  0
 28 40  1  0  0  0
 29 30  1  0  0  0
 29 41  1  0  0  0
 29 42  1  0  0  0
 30 31  1  0  0  0
 30 43  1  0  0  0
 30 44  1  0  0  0
 31 45  1  0  0  0
 31 46  1  0  0  0
M  END
> <b_m_subgroup_collapsed>
0

> <s_m_subgroup_title>
enumerate_136-out

> <s_m_subgroupid>
enumerate_136-out

$$$$
