5045-1
                    3D
 Schrodinger Suite 2024-3.
 44 45  0  0  1  0            999 V2000
   76.7152   51.2564   42.5117 C   0  0  0  0  0  0
   75.6469   51.8672   41.7091 C   0  0  0  0  0  0
   74.7156   52.5958   42.3599 C   0  0  0  0  0  0
   74.7624   52.7581   43.7471 N   0  0  0  0  0  0
   75.7023   52.2182   44.5484 C   0  0  0  0  0  0
   75.6665   52.3767   45.7684 O   0  0  0  0  0  0
   76.7303   51.4438   43.8559 C   0  0  0  0  0  0
   77.7066   50.8711   44.7216 C   0  0  0  0  0  0
   78.4723   50.4247   45.4646 N   0  0  0  0  0  0
   73.5301   53.2752   41.6754 C   0  0  2  0  0  0
   73.5536   53.2080   40.1403 C   0  0  0  0  0  0
   74.1629   51.9154   39.6394 C   0  0  0  0  0  0
   75.5862   51.7783   40.1806 C   0  0  0  0  0  0
   72.6664   52.6907   41.9933 H   0  0  0  0  0  0
   72.5491   53.3463   39.7375 H   0  0  0  0  0  0
   74.1721   53.9906   39.7152 H   0  0  0  0  0  0
   73.5550   51.0645   39.9511 H   0  0  0  0  0  0
   74.1759   51.9052   38.5496 H   0  0  0  0  0  0
   76.2138   52.5768   39.7810 H   0  0  0  0  0  0
   75.9881   50.8598   39.7711 H   0  0  0  0  0  0
   74.0228   53.3179   44.1572 H   0  0  0  0  0  0
   78.2659   50.0552   41.5379 R   0  0  0  0  0  0
   75.3201   58.2935   44.8158 C   0  0  0  0  0  0
   75.5069   56.8865   44.3307 C   0  0  0  0  0  0
   74.3316   56.4879   43.4882 C   0  0  0  0  0  0
   74.5185   55.0809   43.0030 C   0  0  0  0  0  0
   73.3432   54.6822   42.1606 C   0  0  0  0  0  0
   72.0894   54.7663   42.9796 C   0  0  0  0  0  0
   73.2349   55.6065   40.9841 C   0  0  0  0  0  0
   76.1741   58.5832   45.4280 H   0  0  0  0  0  0
   74.4090   58.3546   45.4110 H   0  0  0  0  0  0
   75.2413   58.9652   43.9610 H   0  0  0  0  0  0
   76.4180   56.8254   43.7355 H   0  0  0  0  0  0
   75.5857   56.2149   45.1855 H   0  0  0  0  0  0
   73.4205   56.5490   44.0834 H   0  0  0  0  0  0
   74.2529   57.1595   42.6333 H   0  0  0  0  0  0
   75.4296   55.0197   42.4078 H   0  0  0  0  0  0
   74.5972   54.4092   43.8579 H   0  0  0  0  0  0
   71.9536   55.7888   43.3322 H   0  0  0  0  0  0
   71.2354   54.4766   42.3674 H   0  0  0  0  0  0
   72.1681   54.0947   43.8345 H   0  0  0  0  0  0
   73.0991   56.6289   41.3367 H   0  0  0  0  0  0
   74.1460   55.5454   40.3889 H   0  0  0  0  0  0
   72.3808   55.3168   40.3719 H   0  0  0  0  0  0
  1  2  1  0  0  0
  1  7  2  0  0  0
  1 22  1  0  0  0
  2  3  2  0  0  0
  2 13  1  0  0  0
  3  4  1  0  0  0
  3 10  1  0  0  0
  4  5  1  0  0  0
  4 21  1  0  0  0
  5  6  2  0  0  0
  5  7  1  0  0  0
  7  8  1  0  0  0
  8  9  3  0  0  0
 10 11  1  0  0  0
 10 14  1  0  0  0
 10 27  1  0  0  0
 11 12  1  0  0  0
 11 15  1  0  0  0
 11 16  1  0  0  0
 12 13  1  0  0  0
 12 17  1  0  0  0
 12 18  1  0  0  0
 13 19  1  0  0  0
 13 20  1  0  0  0
 23 24  1  0  0  0
 23 30  1  0  0  0
 23 31  1  0  0  0
 23 32  1  0  0  0
 24 25  1  0  0  0
 24 33  1  0  0  0
 24 34  1  0  0  0
 25 26  1  0  0  0
 25 35  1  0  0  0
 25 36  1  0  0  0
 26 27  1  0  0  0
 26 37  1  0  0  0
 26 38  1  0  0  0
 27 28  1  0  0  0
 27 29  1  0  0  0
 28 39  1  0  0  0
 28 40  1  0  0  0
 28 41  1  0  0  0
 29 42  1  0  0  0
 29 43  1  0  0  0
 29 44  1  0  0  0
M  END
> <b_m_subgroup_collapsed>
0

> <s_m_subgroup_title>
enumerate_136-out

> <s_m_subgroupid>
enumerate_136-out

$$$$
