25289-1
                    3D
 Schrodinger Suite 2024-3.
 43 44  0  0  1  0            999 V2000
   76.7152   51.2564   42.5117 C   0  0  0  0  0  0
   75.6469   51.8672   41.7091 C   0  0  0  0  0  0
   74.7156   52.5958   42.3599 C   0  0  0  0  0  0
   74.7624   52.7581   43.7471 N   0  0  0  0  0  0
   75.7023   52.2182   44.5484 C   0  0  0  0  0  0
   75.6665   52.3767   45.7684 O   0  0  0  0  0  0
   76.7303   51.4438   43.8559 C   0  0  0  0  0  0
   77.7066   50.8711   44.7216 C   0  0  0  0  0  0
   78.4723   50.4247   45.4646 N   0  0  0  0  0  0
   73.5301   53.2752   41.6754 C   0  0  2  0  0  0
   73.5536   53.2080   40.1403 C   0  0  0  0  0  0
   74.1629   51.9154   39.6394 C   0  0  0  0  0  0
   75.5862   51.7783   40.1806 C   0  0  0  0  0  0
   72.6664   52.6907   41.9933 H   0  0  0  0  0  0
   72.5491   53.3463   39.7375 H   0  0  0  0  0  0
   74.1721   53.9906   39.7152 H   0  0  0  0  0  0
   73.5550   51.0645   39.9511 H   0  0  0  0  0  0
   74.1759   51.9052   38.5496 H   0  0  0  0  0  0
   76.2138   52.5768   39.7810 H   0  0  0  0  0  0
   75.9881   50.8598   39.7711 H   0  0  0  0  0  0
   74.0228   53.3179   44.1572 H   0  0  0  0  0  0
   78.2659   50.0552   41.5379 R   0  0  0  0  0  0
   68.8330   56.4080   47.0054 C   0  0  0  0  0  0
   68.5649   56.0067   45.5852 C   0  0  0  0  0  0
   69.8377   56.0834   44.7952 C   0  0  0  0  0  0
   69.5695   55.6820   43.3749 C   0  0  0  0  0  0
   70.8423   55.7587   42.5849 C   0  0  0  0  0  0
   71.8316   54.8565   43.1670 N   0  0  0  0  0  0
   73.3084   54.9449   42.2511 S   0  0  0  0  0  0
   74.3964   55.2391   43.1901 O   0  0  0  0  0  0
   73.0538   55.7888   41.0785 O   0  0  0  0  0  0
   67.9082   56.3523   47.5795 H   0  0  0  0  0  0
   69.5716   55.7344   47.4401 H   0  0  0  0  0  0
   69.2142   57.4289   47.0287 H   0  0  0  0  0  0
   67.8263   56.6802   45.1506 H   0  0  0  0  0  0
   68.1837   54.9857   45.5619 H   0  0  0  0  0  0
   70.5762   55.4098   45.2298 H   0  0  0  0  0  0
   70.2188   57.1043   44.8184 H   0  0  0  0  0  0
   68.8309   56.3556   42.9403 H   0  0  0  0  0  0
   69.1884   54.6611   43.3516 H   0  0  0  0  0  0
   71.2234   56.7796   42.6082 H   0  0  0  0  0  0
   70.6474   55.4671   41.5528 H   0  0  0  0  0  0
   71.4784   53.9105   43.1467 H   0  0  0  0  0  0
  1  2  1  0  0  0
  1  7  2  0  0  0
  1 22  1  0  0  0
  2  3  2  0  0  0
  2 13  1  0  0  0
  3  4  1  0  0  0
  3 10  1  0  0  0
  4  5  1  0  0  0
  4 21  1  0  0  0
  5  6  2  0  0  0
  5  7  1  0  0  0
  7  8  1  0  0  0
  8  9  3  0  0  0
 10 11  1  0  0  0
 10 14  1  0  0  0
 10 29  1  0  0  0
 11 12  1  0  0  0
 11 15  1  0  0  0
 11 16  1  0  0  0
 12 13  1  0  0  0
 12 17  1  0  0  0
 12 18  1  0  0  0
 13 19  1  0  0  0
 13 20  1  0  0  0
 23 24  1  0  0  0
 23 32  1  0  0  0
 23 33  1  0  0  0
 23 34  1  0  0  0
 24 25  1  0  0  0
 24 35  1  0  0  0
 24 36  1  0  0  0
 25 26  1  0  0  0
 25 37  1  0  0  0
 25 38  1  0  0  0
 26 27  1  0  0  0
 26 39  1  0  0  0
 26 40  1  0  0  0
 27 28  1  0  0  0
 27 41  1  0  0  0
 27 42  1  0  0  0
 28 29  1  0  0  0
 28 43  1  0  0  0
 29 30  2  0  0  0
 29 31  2  0  0  0
M  END
> <b_m_subgroup_collapsed>
0

> <s_m_subgroup_title>
enumerate_136-out

> <s_m_subgroupid>
enumerate_136-out

$$$$
