3195-1
                    3D
 Schrodinger Suite 2024-3.
 45 47  0  0  1  0            999 V2000
   76.7152   51.2564   42.5117 C   0  0  0  0  0  0
   75.6469   51.8672   41.7091 C   0  0  0  0  0  0
   74.7156   52.5958   42.3599 C   0  0  0  0  0  0
   74.7624   52.7581   43.7471 N   0  0  0  0  0  0
   75.7023   52.2182   44.5484 C   0  0  0  0  0  0
   75.6665   52.3767   45.7684 O   0  0  0  0  0  0
   76.7303   51.4438   43.8559 C   0  0  0  0  0  0
   77.7066   50.8711   44.7216 C   0  0  0  0  0  0
   78.4723   50.4247   45.4646 N   0  0  0  0  0  0
   73.5301   53.2752   41.6754 C   0  0  2  0  0  0
   73.5536   53.2080   40.1403 C   0  0  0  0  0  0
   74.1629   51.9154   39.6394 C   0  0  0  0  0  0
   75.5862   51.7783   40.1806 C   0  0  0  0  0  0
   72.6664   52.6907   41.9933 H   0  0  0  0  0  0
   72.5491   53.3463   39.7375 H   0  0  0  0  0  0
   74.1721   53.9906   39.7152 H   0  0  0  0  0  0
   73.5550   51.0645   39.9511 H   0  0  0  0  0  0
   74.1759   51.9052   38.5496 H   0  0  0  0  0  0
   76.2138   52.5768   39.7810 H   0  0  0  0  0  0
   75.9881   50.8598   39.7711 H   0  0  0  0  0  0
   74.0228   53.3179   44.1572 H   0  0  0  0  0  0
   78.2659   50.0552   41.5379 R   0  0  0  0  0  0
   73.3432   54.6822   42.1606 C   0  0  0  0  0  0
   72.0434   55.2216   41.6415 C   0  0  0  0  0  0
   71.8565   56.6286   42.1266 C   0  0  0  0  0  0
   70.5566   57.1680   41.6076 C   0  0  0  0  0  0
   69.3436   56.3907   42.1243 C   0  0  0  0  0  0
   68.1694   57.3829   42.0894 C   0  0  0  0  0  0
   68.7811   58.7739   41.8531 C   0  0  0  0  0  0
   70.2883   58.6028   42.0577 C   0  0  0  0  0  0
   73.3314   54.6922   43.2504 H   0  0  0  0  0  0
   74.1638   55.3027   41.8004 H   0  0  0  0  0  0
   72.0552   55.2116   40.5516 H   0  0  0  0  0  0
   71.2228   54.6011   42.0017 H   0  0  0  0  0  0
   71.8447   56.6386   43.2165 H   0  0  0  0  0  0
   72.6771   57.2491   41.7665 H   0  0  0  0  0  0
   70.5954   57.1204   40.5171 H   0  0  0  0  0  0
   69.1496   55.4892   41.5403 H   0  0  0  0  0  0
   69.5250   56.0722   43.1530 H   0  0  0  0  0  0
   67.4652   57.1346   41.2929 H   0  0  0  0  0  0
   67.6122   57.3496   43.0276 H   0  0  0  0  0  0
   68.5853   59.0918   40.8269 H   0  0  0  0  0  0
   68.3578   59.5360   42.5099 H   0  0  0  0  0  0
   70.5380   58.7146   43.1150 H   0  0  0  0  0  0
   70.8761   59.3372   41.5041 H   0  0  0  0  0  0
  1  2  1  0  0  0
  1  7  2  0  0  0
  1 22  1  0  0  0
  2  3  2  0  0  0
  2 13  1  0  0  0
  3  4  1  0  0  0
  3 10  1  0  0  0
  4  5  1  0  0  0
  4 21  1  0  0  0
  5  6  2  0  0  0
  5  7  1  0  0  0
  7  8  1  0  0  0
  8  9  3  0  0  0
 10 11  1  0  0  0
 10 14  1  0  0  0
 10 23  1  0  0  0
 11 12  1  0  0  0
 11 15  1  0  0  0
 11 16  1  0  0  0
 12 13  1  0  0  0
 12 17  1  0  0  0
 12 18  1  0  0  0
 13 19  1  0  0  0
 13 20  1  0  0  0
 23 24  1  0  0  0
 23 31  1  0  0  0
 23 32  1  0  0  0
 24 25  1  0  0  0
 24 33  1  0  0  0
 24 34  1  0  0  0
 25 26  1  0  0  0
 25 35  1  0  0  0
 25 36  1  0  0  0
 26 27  1  0  0  0
 26 30  1  0  0  0
 26 37  1  0  0  0
 27 28  1  0  0  0
 27 38  1  0  0  0
 27 39  1  0  0  0
 28 29  1  0  0  0
 28 40  1  0  0  0
 28 41  1  0  0  0
 29 30  1  0  0  0
 29 42  1  0  0  0
 29 43  1  0  0  0
 30 44  1  0  0  0
 30 45  1  0  0  0
M  END
> <b_m_subgroup_collapsed>
0

> <s_m_subgroup_title>
enumerate_136-out

> <s_m_subgroupid>
enumerate_136-out

$$$$
