44402-1
                    3D
 Schrodinger Suite 2024-3.
 43 45  0  0  1  0            999 V2000
   76.7152   51.2564   42.5117 C   0  0  0  0  0  0
   75.6469   51.8672   41.7091 C   0  0  0  0  0  0
   74.7156   52.5958   42.3599 C   0  0  0  0  0  0
   74.7624   52.7581   43.7471 N   0  0  0  0  0  0
   75.7023   52.2182   44.5484 C   0  0  0  0  0  0
   75.6665   52.3767   45.7684 O   0  0  0  0  0  0
   76.7303   51.4438   43.8559 C   0  0  0  0  0  0
   77.7066   50.8711   44.7216 C   0  0  0  0  0  0
   78.4723   50.4247   45.4646 N   0  0  0  0  0  0
   73.5301   53.2752   41.6754 C   0  0  2  0  0  0
   73.5536   53.2080   40.1403 C   0  0  0  0  0  0
   74.1629   51.9154   39.6394 C   0  0  0  0  0  0
   75.5862   51.7783   40.1806 C   0  0  0  0  0  0
   72.6664   52.6907   41.9933 H   0  0  0  0  0  0
   72.5491   53.3463   39.7375 H   0  0  0  0  0  0
   74.1721   53.9906   39.7152 H   0  0  0  0  0  0
   73.5550   51.0645   39.9511 H   0  0  0  0  0  0
   74.1759   51.9052   38.5496 H   0  0  0  0  0  0
   76.2138   52.5768   39.7810 H   0  0  0  0  0  0
   75.9881   50.8598   39.7711 H   0  0  0  0  0  0
   74.0228   53.3179   44.1572 H   0  0  0  0  0  0
   78.2659   50.0552   41.5379 R   0  0  0  0  0  0
   73.3432   54.6822   42.1606 C   0  0  0  0  0  0
   74.5612   54.9784   42.9844 C   0  0  0  0  0  0
   75.4892   55.2360   43.6256 N   0  0  0  0  0  0
   73.3209   55.6114   40.9329 C   0  0  0  0  0  0
   73.0816   57.1065   41.2249 C   0  0  0  0  0  0
   71.6405   57.4299   41.6641 C   0  0  0  0  0  0
   71.3186   57.2303   43.1603 C   0  0  0  0  0  0
   71.9656   56.0280   43.8799 C   0  0  0  0  0  0
   72.0931   54.7283   43.0621 C   0  0  0  0  0  0
   74.2747   55.5076   40.4125 H   0  0  0  0  0  0
   72.5693   55.2564   40.2253 H   0  0  0  0  0  0
   73.8016   57.4799   41.9552 H   0  0  0  0  0  0
   73.2850   57.6580   40.3051 H   0  0  0  0  0  0
   71.4144   58.4667   41.4082 H   0  0  0  0  0  0
   70.9460   56.8379   41.0650 H   0  0  0  0  0  0
   71.5946   58.1346   43.7058 H   0  0  0  0  0  0
   70.2339   57.1627   43.2628 H   0  0  0  0  0  0
   72.9537   56.3162   44.2438 H   0  0  0  0  0  0
   71.3853   55.8255   44.7821 H   0  0  0  0  0  0
   71.1876   54.5469   42.4804 H   0  0  0  0  0  0
   72.1624   53.8947   43.7634 H   0  0  0  0  0  0
  1  2  1  0  0  0
  1  7  2  0  0  0
  1 22  1  0  0  0
  2  3  2  0  0  0
  2 13  1  0  0  0
  3  4  1  0  0  0
  3 10  1  0  0  0
  4  5  1  0  0  0
  4 21  1  0  0  0
  5  6  2  0  0  0
  5  7  1  0  0  0
  7  8  1  0  0  0
  8  9  3  0  0  0
 10 11  1  0  0  0
 10 14  1  0  0  0
 10 23  1  0  0  0
 11 12  1  0  0  0
 11 15  1  0  0  0
 11 16  1  0  0  0
 12 13  1  0  0  0
 12 17  1  0  0  0
 12 18  1  0  0  0
 13 19  1  0  0  0
 13 20  1  0  0  0
 23 24  1  0  0  0
 23 26  1  0  0  0
 23 31  1  0  0  0
 24 25  3  0  0  0
 26 27  1  0  0  0
 26 32  1  0  0  0
 26 33  1  0  0  0
 27 28  1  0  0  0
 27 34  1  0  0  0
 27 35  1  0  0  0
 28 29  1  0  0  0
 28 36  1  0  0  0
 28 37  1  0  0  0
 29 30  1  0  0  0
 29 38  1  0  0  0
 29 39  1  0  0  0
 30 31  1  0  0  0
 30 40  1  0  0  0
 30 41  1  0  0  0
 31 42  1  0  0  0
 31 43  1  0  0  0
M  END
> <b_m_subgroup_collapsed>
0

> <s_m_subgroup_title>
enumerate_135-out

> <s_m_subgroupid>
enumerate_135-out

$$$$
