13976-1
                    3D
 Schrodinger Suite 2024-3.
 37 40  0  0  1  0            999 V2000
   76.7152   51.2564   42.5117 C   0  0  0  0  0  0
   75.6469   51.8672   41.7091 C   0  0  0  0  0  0
   74.7156   52.5958   42.3599 C   0  0  0  0  0  0
   74.7624   52.7581   43.7471 N   0  0  0  0  0  0
   75.7023   52.2182   44.5484 C   0  0  0  0  0  0
   75.6665   52.3767   45.7684 O   0  0  0  0  0  0
   76.7303   51.4438   43.8559 C   0  0  0  0  0  0
   77.7066   50.8711   44.7216 C   0  0  0  0  0  0
   78.4723   50.4247   45.4646 N   0  0  0  0  0  0
   73.5301   53.2752   41.6754 C   0  0  2  0  0  0
   73.5536   53.2080   40.1403 C   0  0  0  0  0  0
   74.1629   51.9154   39.6394 C   0  0  0  0  0  0
   75.5862   51.7783   40.1806 C   0  0  0  0  0  0
   72.6664   52.6907   41.9933 H   0  0  0  0  0  0
   72.5491   53.3463   39.7375 H   0  0  0  0  0  0
   74.1721   53.9906   39.7152 H   0  0  0  0  0  0
   73.5550   51.0645   39.9511 H   0  0  0  0  0  0
   74.1759   51.9052   38.5496 H   0  0  0  0  0  0
   76.2138   52.5768   39.7810 H   0  0  0  0  0  0
   75.9881   50.8598   39.7711 H   0  0  0  0  0  0
   74.0228   53.3179   44.1572 H   0  0  0  0  0  0
   78.2659   50.0552   41.5379 R   0  0  0  0  0  0
   73.3432   54.6822   42.1606 C   0  0  0  0  0  0
   72.0960   55.2182   42.3858 N   0  0  0  0  0  0
   72.1345   56.4942   42.8211 N   0  0  0  0  0  0
   73.4179   56.7595   42.8719 C   0  0  0  0  0  0
   74.2187   55.7042   42.4739 C   0  0  0  0  0  0
   75.6784   56.0636   42.5477 C   0  0  0  0  0  0
   75.6388   57.3466   43.4025 C   0  0  0  0  0  0
   74.2304   57.9612   43.2621 C   0  0  0  0  0  0
   76.3039   55.2934   43.0022 H   0  0  0  0  0  0
   76.0865   56.2698   41.5567 H   0  0  0  0  0  0
   76.4272   58.0505   43.1298 H   0  0  0  0  0  0
   75.8104   57.0831   44.4487 H   0  0  0  0  0  0
   74.2122   58.7216   42.4800 H   0  0  0  0  0  0
   73.9038   58.4341   44.1892 H   0  0  0  0  0  0
   71.2223   54.7132   42.2432 H   0  0  0  0  0  0
  1  2  1  0  0  0
  1  7  2  0  0  0
  1 22  1  0  0  0
  2  3  2  0  0  0
  2 13  1  0  0  0
  3  4  1  0  0  0
  3 10  1  0  0  0
  4  5  1  0  0  0
  4 21  1  0  0  0
  5  6  2  0  0  0
  5  7  1  0  0  0
  7  8  1  0  0  0
  8  9  3  0  0  0
 10 11  1  0  0  0
 10 14  1  0  0  0
 10 23  1  0  0  0
 11 12  1  0  0  0
 11 15  1  0  0  0
 11 16  1  0  0  0
 12 13  1  0  0  0
 12 17  1  0  0  0
 12 18  1  0  0  0
 13 19  1  0  0  0
 13 20  1  0  0  0
 23 24  1  0  0  0
 23 27  2  0  0  0
 24 25  1  0  0  0
 24 37  1  0  0  0
 25 26  2  0  0  0
 26 27  1  0  0  0
 26 30  1  0  0  0
 27 28  1  0  0  0
 28 29  1  0  0  0
 28 31  1  0  0  0
 28 32  1  0  0  0
 29 30  1  0  0  0
 29 33  1  0  0  0
 29 34  1  0  0  0
 30 35  1  0  0  0
 30 36  1  0  0  0
M  END
> <b_m_subgroup_collapsed>
0

> <s_m_subgroup_title>
enumerate_135-out

> <s_m_subgroupid>
enumerate_135-out

$$$$
