22326-1
                    3D
 Schrodinger Suite 2024-3.
 47 51  0  0  1  0            999 V2000
   76.7152   51.2564   42.5117 C   0  0  0  0  0  0
   75.6469   51.8672   41.7091 C   0  0  0  0  0  0
   74.7156   52.5958   42.3599 C   0  0  0  0  0  0
   74.7624   52.7581   43.7471 N   0  0  0  0  0  0
   75.7023   52.2182   44.5484 C   0  0  0  0  0  0
   75.6665   52.3767   45.7684 O   0  0  0  0  0  0
   76.7303   51.4438   43.8559 C   0  0  0  0  0  0
   77.7066   50.8711   44.7216 C   0  0  0  0  0  0
   78.4723   50.4247   45.4646 N   0  0  0  0  0  0
   73.5301   53.2752   41.6754 C   0  0  2  0  0  0
   73.5536   53.2080   40.1403 C   0  0  0  0  0  0
   74.1629   51.9154   39.6394 C   0  0  0  0  0  0
   75.5862   51.7783   40.1806 C   0  0  0  0  0  0
   72.6664   52.6907   41.9933 H   0  0  0  0  0  0
   72.5491   53.3463   39.7375 H   0  0  0  0  0  0
   74.1721   53.9906   39.7152 H   0  0  0  0  0  0
   73.5550   51.0645   39.9511 H   0  0  0  0  0  0
   74.1759   51.9052   38.5496 H   0  0  0  0  0  0
   76.2138   52.5768   39.7810 H   0  0  0  0  0  0
   75.9881   50.8598   39.7711 H   0  0  0  0  0  0
   74.0228   53.3179   44.1572 H   0  0  0  0  0  0
   78.2659   50.0552   41.5379 R   0  0  0  0  0  0
   73.3432   54.6822   42.1606 C   0  0  1  0  0  0
   72.0517   54.7686   43.0042 C   0  0  0  0  0  0
   71.8612   56.2180   43.5042 C   0  0  2  0  0  0
   71.7487   57.1700   42.2924 C   0  0  0  0  0  0
   73.0407   57.0830   41.4496 C   0  0  1  0  0  0
   74.2520   57.4930   42.3169 C   0  0  0  0  0  0
   74.3590   56.5391   43.5253 C   0  0  1  0  0  0
   75.4032   56.8923   44.2735 F   0  0  0  0  0  0
   73.0719   56.6280   44.3723 C   0  0  0  0  0  0
   74.5547   55.0911   43.0281 C   0  0  0  0  0  0
   73.2316   55.6340   40.9485 C   0  0  0  0  0  0
   71.1908   54.4570   42.4109 H   0  0  0  0  0  0
   72.1050   54.0807   43.8494 H   0  0  0  0  0  0
   70.9502   56.2799   44.1006 H   0  0  0  0  0  0
   71.5851   58.1945   42.6298 H   0  0  0  0  0  0
   70.8822   56.9067   41.6842 H   0  0  0  0  0  0
   72.9629   57.7558   40.5948 H   0  0  0  0  0  0
   74.1432   58.5231   42.6584 H   0  0  0  0  0  0
   75.1693   57.4595   41.7280 H   0  0  0  0  0  0
   73.1499   55.9794   45.2456 H   0  0  0  0  0  0
   72.9404   57.6416   44.7526 H   0  0  0  0  0  0
   74.6611   54.4129   43.8755 H   0  0  0  0  0  0
   75.4778   55.0118   42.4528 H   0  0  0  0  0  0
   74.1259   55.5630   40.3277 H   0  0  0  0  0  0
   72.3948   55.3404   40.3130 H   0  0  0  0  0  0
  1  2  1  0  0  0
  1  7  2  0  0  0
  1 22  1  0  0  0
  2  3  2  0  0  0
  2 13  1  0  0  0
  3  4  1  0  0  0
  3 10  1  0  0  0
  4  5  1  0  0  0
  4 21  1  0  0  0
  5  6  2  0  0  0
  5  7  1  0  0  0
  7  8  1  0  0  0
  8  9  3  0  0  0
 10 11  1  0  0  0
 10 14  1  0  0  0
 10 23  1  0  0  0
 11 12  1  0  0  0
 11 15  1  0  0  0
 11 16  1  0  0  0
 12 13  1  0  0  0
 12 17  1  0  0  0
 12 18  1  0  0  0
 13 19  1  0  0  0
 13 20  1  0  0  0
 23 24  1  0  0  0
 23 32  1  0  0  0
 23 33  1  0  0  0
 24 25  1  0  0  0
 24 34  1  0  0  0
 24 35  1  0  0  0
 25 26  1  0  0  0
 25 31  1  0  0  0
 25 36  1  0  0  0
 26 27  1  0  0  0
 26 37  1  0  0  0
 26 38  1  0  0  0
 27 28  1  0  0  0
 27 33  1  0  0  0
 27 39  1  0  0  0
 28 29  1  0  0  0
 28 40  1  0  0  0
 28 41  1  0  0  0
 29 30  1  0  0  0
 29 31  1  0  0  0
 29 32  1  0  0  0
 31 42  1  0  0  0
 31 43  1  0  0  0
 32 44  1  0  0  0
 32 45  1  0  0  0
 33 46  1  0  0  0
 33 47  1  0  0  0
M  END
> <b_m_subgroup_collapsed>
0

> <s_m_subgroup_title>
enumerate_136-out

> <s_m_subgroupid>
enumerate_136-out

$$$$
