13579-2
                    3D
 Schrodinger Suite 2024-3.
 42 43  0  0  1  0            999 V2000
   76.7152   51.2564   42.5117 C   0  0  0  0  0  0
   75.6469   51.8672   41.7091 C   0  0  0  0  0  0
   74.7156   52.5958   42.3599 C   0  0  0  0  0  0
   74.7624   52.7581   43.7471 N   0  0  0  0  0  0
   75.7023   52.2182   44.5484 C   0  0  0  0  0  0
   75.6665   52.3767   45.7684 O   0  0  0  0  0  0
   76.7303   51.4438   43.8559 C   0  0  0  0  0  0
   77.7066   50.8711   44.7216 C   0  0  0  0  0  0
   78.4723   50.4247   45.4646 N   0  0  0  0  0  0
   73.5301   53.2752   41.6754 C   0  0  2  0  0  0
   73.5536   53.2080   40.1403 C   0  0  0  0  0  0
   74.1629   51.9154   39.6394 C   0  0  0  0  0  0
   75.5862   51.7783   40.1806 C   0  0  0  0  0  0
   72.6664   52.6907   41.9933 H   0  0  0  0  0  0
   72.5491   53.3463   39.7375 H   0  0  0  0  0  0
   74.1721   53.9906   39.7152 H   0  0  0  0  0  0
   73.5550   51.0645   39.9511 H   0  0  0  0  0  0
   74.1759   51.9052   38.5496 H   0  0  0  0  0  0
   76.2138   52.5768   39.7810 H   0  0  0  0  0  0
   75.9881   50.8598   39.7711 H   0  0  0  0  0  0
   74.0228   53.3179   44.1572 H   0  0  0  0  0  0
   78.2659   50.0552   41.5379 R   0  0  0  0  0  0
   70.1536   54.6434   44.6706 C   0  0  0  0  0  0
   70.9587   54.4272   43.5709 O   0  0  0  0  0  0
   71.2007   55.5437   42.7968 C   0  0  0  0  0  0
   72.0831   55.1703   41.6427 C   0  0  2  0  0  0
   73.3482   54.6447   42.1476 N   0  0  0  0  0  0
   72.3461   56.3839   40.8013 C   0  0  1  0  0  0
   71.0464   56.9240   40.2826 C   0  0  0  0  0  0
   72.9720   57.3471   41.5661 O   0  0  0  0  0  0
   70.0223   53.7078   45.2144 H   0  0  0  0  0  0
   70.6206   55.3807   45.3236 H   0  0  0  0  0  0
   69.1818   55.0123   44.3426 H   0  0  0  0  0  0
   71.6950   56.3045   43.4009 H   0  0  0  0  0  0
   70.2562   55.9362   42.4199 H   0  0  0  0  0  0
   71.5888   54.4095   41.0386 H   0  0  0  0  0  0
   73.3384   54.6546   43.1575 H   0  0  0  0  0  0
   72.9874   56.1126   39.9627 H   0  0  0  0  0  0
   70.5521   56.1632   39.6785 H   0  0  0  0  0  0
   70.4052   57.1953   41.1212 H   0  0  0  0  0  0
   71.2375   57.8058   39.6711 H   0  0  0  0  0  0
   73.8745   57.6265   41.2383 H   0  0  0  0  0  0
  1  2  1  0  0  0
  1  7  2  0  0  0
  1 22  1  0  0  0
  2  3  2  0  0  0
  2 13  1  0  0  0
  3  4  1  0  0  0
  3 10  1  0  0  0
  4  5  1  0  0  0
  4 21  1  0  0  0
  5  6  2  0  0  0
  5  7  1  0  0  0
  7  8  1  0  0  0
  8  9  3  0  0  0
 10 11  1  0  0  0
 10 14  1  0  0  0
 10 27  1  0  0  0
 11 12  1  0  0  0
 11 15  1  0  0  0
 11 16  1  0  0  0
 12 13  1  0  0  0
 12 17  1  0  0  0
 12 18  1  0  0  0
 13 19  1  0  0  0
 13 20  1  0  0  0
 23 24  1  0  0  0
 23 31  1  0  0  0
 23 32  1  0  0  0
 23 33  1  0  0  0
 24 25  1  0  0  0
 25 26  1  0  0  0
 25 34  1  0  0  0
 25 35  1  0  0  0
 26 27  1  0  0  0
 26 28  1  0  0  0
 26 36  1  0  0  0
 27 37  1  0  0  0
 28 29  1  0  0  0
 28 30  1  0  0  0
 28 38  1  0  0  0
 29 39  1  0  0  0
 29 40  1  0  0  0
 29 41  1  0  0  0
 30 42  1  0  0  0
M  END
> <b_m_subgroup_collapsed>
0

> <s_m_subgroup_title>
enumerate_136-out

> <s_m_subgroupid>
enumerate_136-out

$$$$
