27275-1
                    3D
 Schrodinger Suite 2024-3.
 46 48  0  0  1  0            999 V2000
   76.7152   51.2564   42.5117 C   0  0  0  0  0  0
   75.6469   51.8672   41.7091 C   0  0  0  0  0  0
   74.7156   52.5958   42.3599 C   0  0  0  0  0  0
   74.7624   52.7581   43.7471 N   0  0  0  0  0  0
   75.7023   52.2182   44.5484 C   0  0  0  0  0  0
   75.6665   52.3767   45.7684 O   0  0  0  0  0  0
   76.7303   51.4438   43.8559 C   0  0  0  0  0  0
   77.7066   50.8711   44.7216 C   0  0  0  0  0  0
   78.4723   50.4247   45.4646 N   0  0  0  0  0  0
   73.5301   53.2752   41.6754 C   0  0  2  0  0  0
   73.5536   53.2080   40.1403 C   0  0  0  0  0  0
   74.1629   51.9154   39.6394 C   0  0  0  0  0  0
   75.5862   51.7783   40.1806 C   0  0  0  0  0  0
   72.6664   52.6907   41.9933 H   0  0  0  0  0  0
   72.5491   53.3463   39.7375 H   0  0  0  0  0  0
   74.1721   53.9906   39.7152 H   0  0  0  0  0  0
   73.5550   51.0645   39.9511 H   0  0  0  0  0  0
   74.1759   51.9052   38.5496 H   0  0  0  0  0  0
   76.2138   52.5768   39.7810 H   0  0  0  0  0  0
   75.9881   50.8598   39.7711 H   0  0  0  0  0  0
   74.0228   53.3179   44.1572 H   0  0  0  0  0  0
   78.2659   50.0552   41.5379 R   0  0  0  0  0  0
   70.0172   53.5629   44.1539 C   0  0  0  0  0  0
   70.9759   54.3486   43.5475 O   0  0  0  0  0  0
   70.9571   54.3310   42.1678 C   0  0  0  0  0  0
   72.0434   55.2216   41.6415 C   0  0  0  0  0  0
   73.3432   54.6822   42.1606 C   0  0  0  0  0  0
   71.7895   56.6615   42.0943 C   0  0  0  0  0  0
   70.8631   57.2238   41.0178 C   0  0  0  0  0  0
   71.4070   56.6244   39.7188 C   0  0  0  0  0  0
   71.9870   55.2536   40.1051 C   0  0  0  0  0  0
   70.1131   53.6433   45.2367 H   0  0  0  0  0  0
   69.0260   53.9003   43.8509 H   0  0  0  0  0  0
   70.1551   52.5243   43.8531 H   0  0  0  0  0  0
   69.9904   54.6885   41.8130 H   0  0  0  0  0  0
   71.1196   53.3125   41.8151 H   0  0  0  0  0  0
   73.3314   54.6922   43.2504 H   0  0  0  0  0  0
   74.1638   55.3027   41.8004 H   0  0  0  0  0  0
   71.3596   56.7201   43.0958 H   0  0  0  0  0  0
   72.7275   57.2207   42.1083 H   0  0  0  0  0  0
   69.8406   56.8807   41.1895 H   0  0  0  0  0  0
   70.8432   58.3150   41.0041 H   0  0  0  0  0  0
   70.6423   56.5535   38.9431 H   0  0  0  0  0  0
   72.2019   57.2623   39.3266 H   0  0  0  0  0  0
   72.9795   55.1218   39.6699 H   0  0  0  0  0  0
   71.3644   54.4399   39.7281 H   0  0  0  0  0  0
  1  2  1  0  0  0
  1  7  2  0  0  0
  1 22  1  0  0  0
  2  3  2  0  0  0
  2 13  1  0  0  0
  3  4  1  0  0  0
  3 10  1  0  0  0
  4  5  1  0  0  0
  4 21  1  0  0  0
  5  6  2  0  0  0
  5  7  1  0  0  0
  7  8  1  0  0  0
  8  9  3  0  0  0
 10 11  1  0  0  0
 10 14  1  0  0  0
 10 27  1  0  0  0
 11 12  1  0  0  0
 11 15  1  0  0  0
 11 16  1  0  0  0
 12 13  1  0  0  0
 12 17  1  0  0  0
 12 18  1  0  0  0
 13 19  1  0  0  0
 13 20  1  0  0  0
 23 24  1  0  0  0
 23 32  1  0  0  0
 23 33  1  0  0  0
 23 34  1  0  0  0
 24 25  1  0  0  0
 25 26  1  0  0  0
 25 35  1  0  0  0
 25 36  1  0  0  0
 26 27  1  0  0  0
 26 28  1  0  0  0
 26 31  1  0  0  0
 27 37  1  0  0  0
 27 38  1  0  0  0
 28 29  1  0  0  0
 28 39  1  0  0  0
 28 40  1  0  0  0
 29 30  1  0  0  0
 29 41  1  0  0  0
 29 42  1  0  0  0
 30 31  1  0  0  0
 30 43  1  0  0  0
 30 44  1  0  0  0
 31 45  1  0  0  0
 31 46  1  0  0  0
M  END
> <b_m_subgroup_collapsed>
0

> <s_m_subgroup_title>
enumerate_136-out

> <s_m_subgroupid>
enumerate_136-out

$$$$
