37712-1
                    3D
 Schrodinger Suite 2024-3.
 35 38  0  0  1  0            999 V2000
   76.7152   51.2564   42.5117 C   0  0  0  0  0  0
   75.6469   51.8672   41.7091 C   0  0  0  0  0  0
   74.7156   52.5958   42.3599 C   0  0  0  0  0  0
   74.7624   52.7581   43.7471 N   0  0  0  0  0  0
   75.7023   52.2182   44.5484 C   0  0  0  0  0  0
   75.6665   52.3767   45.7684 O   0  0  0  0  0  0
   76.7303   51.4438   43.8559 C   0  0  0  0  0  0
   77.7066   50.8711   44.7216 C   0  0  0  0  0  0
   78.4723   50.4247   45.4646 N   0  0  0  0  0  0
   73.5301   53.2752   41.6754 C   0  0  2  0  0  0
   73.5536   53.2080   40.1403 C   0  0  0  0  0  0
   74.1629   51.9154   39.6394 C   0  0  0  0  0  0
   75.5862   51.7783   40.1806 C   0  0  0  0  0  0
   72.6664   52.6907   41.9933 H   0  0  0  0  0  0
   72.5491   53.3463   39.7375 H   0  0  0  0  0  0
   74.1721   53.9906   39.7152 H   0  0  0  0  0  0
   73.5550   51.0645   39.9511 H   0  0  0  0  0  0
   74.1759   51.9052   38.5496 H   0  0  0  0  0  0
   76.2138   52.5768   39.7810 H   0  0  0  0  0  0
   75.9881   50.8598   39.7711 H   0  0  0  0  0  0
   74.0228   53.3179   44.1572 H   0  0  0  0  0  0
   78.2659   50.0552   41.5379 R   0  0  0  0  0  0
   73.3432   54.6822   42.1606 C   0  0  0  0  0  0
   74.4473   55.4464   42.3826 N   0  0  0  0  0  0
   74.2681   56.7190   42.8217 C   0  0  0  0  0  0
   73.0782   57.3278   43.0698 N   0  0  0  0  0  0
   71.9917   56.5764   42.8516 C   0  0  0  0  0  0
   70.6046   56.8819   43.0032 C   0  0  0  0  0  0
   69.8994   55.7453   42.6408 C   0  0  0  0  0  0
   70.7854   54.7557   42.2736 N   0  0  0  0  0  0
   72.0794   55.2312   42.3908 C   0  0  0  0  0  0
   75.1652   57.3075   42.9911 H   0  0  0  0  0  0
   70.1723   57.8143   43.3353 H   0  0  0  0  0  0
   68.8317   55.5569   42.6134 H   0  0  0  0  0  0
   70.4839   53.8322   41.9697 H   0  0  0  0  0  0
  1  2  1  0  0  0
  1  7  2  0  0  0
  1 22  1  0  0  0
  2  3  2  0  0  0
  2 13  1  0  0  0
  3  4  1  0  0  0
  3 10  1  0  0  0
  4  5  1  0  0  0
  4 21  1  0  0  0
  5  6  2  0  0  0
  5  7  1  0  0  0
  7  8  1  0  0  0
  8  9  3  0  0  0
 10 11  1  0  0  0
 10 14  1  0  0  0
 10 23  1  0  0  0
 11 12  1  0  0  0
 11 15  1  0  0  0
 11 16  1  0  0  0
 12 13  1  0  0  0
 12 17  1  0  0  0
 12 18  1  0  0  0
 13 19  1  0  0  0
 13 20  1  0  0  0
 23 24  2  0  0  0
 23 31  1  0  0  0
 24 25  1  0  0  0
 25 26  2  0  0  0
 25 32  1  0  0  0
 26 27  1  0  0  0
 27 28  1  0  0  0
 27 31  2  0  0  0
 28 29  2  0  0  0
 28 33  1  0  0  0
 29 30  1  0  0  0
 29 34  1  0  0  0
 30 31  1  0  0  0
 30 35  1  0  0  0
M  END
> <b_m_subgroup_collapsed>
0

> <s_m_subgroup_title>
enumerate_136-out

> <s_m_subgroupid>
enumerate_136-out

$$$$
