26082-2
                    3D
 Schrodinger Suite 2024-3.
 40 42  0  0  1  0            999 V2000
   76.7152   51.2564   42.5117 C   0  0  0  0  0  0
   75.6469   51.8672   41.7091 C   0  0  0  0  0  0
   74.7156   52.5958   42.3599 C   0  0  0  0  0  0
   74.7624   52.7581   43.7471 N   0  0  0  0  0  0
   75.7023   52.2182   44.5484 C   0  0  0  0  0  0
   75.6665   52.3767   45.7684 O   0  0  0  0  0  0
   76.7303   51.4438   43.8559 C   0  0  0  0  0  0
   77.7066   50.8711   44.7216 C   0  0  0  0  0  0
   78.4723   50.4247   45.4646 N   0  0  0  0  0  0
   73.5301   53.2752   41.6754 C   0  0  2  0  0  0
   73.5536   53.2080   40.1403 C   0  0  0  0  0  0
   74.1629   51.9154   39.6394 C   0  0  0  0  0  0
   75.5862   51.7783   40.1806 C   0  0  0  0  0  0
   72.6664   52.6907   41.9933 H   0  0  0  0  0  0
   72.5491   53.3463   39.7375 H   0  0  0  0  0  0
   74.1721   53.9906   39.7152 H   0  0  0  0  0  0
   73.5550   51.0645   39.9511 H   0  0  0  0  0  0
   74.1759   51.9052   38.5496 H   0  0  0  0  0  0
   76.2138   52.5768   39.7810 H   0  0  0  0  0  0
   75.9881   50.8598   39.7711 H   0  0  0  0  0  0
   74.0228   53.3179   44.1572 H   0  0  0  0  0  0
   78.2659   50.0552   41.5379 R   0  0  0  0  0  0
   75.7871   56.1403   44.8089 C   0  0  0  0  0  0
   74.4948   55.7882   44.1336 C   0  0  0  0  0  0
   74.5619   55.1262   42.9619 C   0  0  0  0  0  0
   73.3432   54.6822   42.1606 C   0  0  2  0  0  0
   72.0525   54.7816   43.0071 C   0  0  0  0  0  0
   71.9971   56.0832   43.8297 C   0  0  0  0  0  0
   73.1916   56.2072   44.8046 C   0  0  0  0  0  0
   75.5787   56.6691   45.7389 H   0  0  0  0  0  0
   76.3437   55.2286   45.0262 H   0  0  0  0  0  0
   76.3780   56.7789   44.1523 H   0  0  0  0  0  0
   75.5447   54.8910   42.5734 H   0  0  0  0  0  0
   73.2641   55.3066   41.2690 H   0  0  0  0  0  0
   71.1777   54.7046   42.3593 H   0  0  0  0  0  0
   71.9981   53.9291   43.6870 H   0  0  0  0  0  0
   71.0589   56.1423   44.3839 H   0  0  0  0  0  0
   71.9962   56.9352   43.1469 H   0  0  0  0  0  0
   73.0333   55.5805   45.6839 H   0  0  0  0  0  0
   73.2702   57.2329   45.1686 H   0  0  0  0  0  0
  1  2  1  0  0  0
  1  7  2  0  0  0
  1 22  1  0  0  0
  2  3  2  0  0  0
  2 13  1  0  0  0
  3  4  1  0  0  0
  3 10  1  0  0  0
  4  5  1  0  0  0
  4 21  1  0  0  0
  5  6  2  0  0  0
  5  7  1  0  0  0
  7  8  1  0  0  0
  8  9  3  0  0  0
 10 11  1  0  0  0
 10 14  1  0  0  0
 10 26  1  0  0  0
 11 12  1  0  0  0
 11 15  1  0  0  0
 11 16  1  0  0  0
 12 13  1  0  0  0
 12 17  1  0  0  0
 12 18  1  0  0  0
 13 19  1  0  0  0
 13 20  1  0  0  0
 23 24  1  0  0  0
 23 30  1  0  0  0
 23 31  1  0  0  0
 23 32  1  0  0  0
 24 25  2  0  0  0
 24 29  1  0  0  0
 25 26  1  0  0  0
 25 33  1  0  0  0
 26 27  1  0  0  0
 26 34  1  0  0  0
 27 28  1  0  0  0
 27 35  1  0  0  0
 27 36  1  0  0  0
 28 29  1  0  0  0
 28 37  1  0  0  0
 28 38  1  0  0  0
 29 39  1  0  0  0
 29 40  1  0  0  0
M  END
> <b_m_subgroup_collapsed>
0

> <s_m_subgroup_title>
enumerate_135-out

> <s_m_subgroupid>
enumerate_135-out

$$$$
