10774-1
                    3D
 Schrodinger Suite 2024-3.
 45 47  0  0  1  0            999 V2000
   76.7152   51.2564   42.5117 C   0  0  0  0  0  0
   75.6469   51.8672   41.7091 C   0  0  0  0  0  0
   74.7156   52.5958   42.3599 C   0  0  0  0  0  0
   74.7624   52.7581   43.7471 N   0  0  0  0  0  0
   75.7023   52.2182   44.5484 C   0  0  0  0  0  0
   75.6665   52.3767   45.7684 O   0  0  0  0  0  0
   76.7303   51.4438   43.8559 C   0  0  0  0  0  0
   77.7066   50.8711   44.7216 C   0  0  0  0  0  0
   78.4723   50.4247   45.4646 N   0  0  0  0  0  0
   73.5301   53.2752   41.6754 C   0  0  2  0  0  0
   73.5536   53.2080   40.1403 C   0  0  0  0  0  0
   74.1629   51.9154   39.6394 C   0  0  0  0  0  0
   75.5862   51.7783   40.1806 C   0  0  0  0  0  0
   72.6664   52.6907   41.9933 H   0  0  0  0  0  0
   72.5491   53.3463   39.7375 H   0  0  0  0  0  0
   74.1721   53.9906   39.7152 H   0  0  0  0  0  0
   73.5550   51.0645   39.9511 H   0  0  0  0  0  0
   74.1759   51.9052   38.5496 H   0  0  0  0  0  0
   76.2138   52.5768   39.7810 H   0  0  0  0  0  0
   75.9881   50.8598   39.7711 H   0  0  0  0  0  0
   74.0228   53.3179   44.1572 H   0  0  0  0  0  0
   78.2659   50.0552   41.5379 R   0  0  0  0  0  0
   73.3432   54.6822   42.1606 C   0  0  2  0  0  0
   71.9891   55.2343   41.6712 C   0  0  0  0  0  0
   71.7942   56.7100   42.0736 C   0  0  0  0  0  0
   72.9720   57.5899   41.6087 C   0  0  0  0  0  0
   74.3262   57.0379   42.0980 C   0  0  0  0  0  0
   74.4050   57.1621   43.5908 C   0  0  0  0  0  0
   75.4480   57.8715   41.5534 C   0  0  0  0  0  0
   74.5211   55.5621   41.6956 C   0  0  0  0  0  0
   73.3399   54.6270   43.2509 H   0  0  0  0  0  0
   71.9317   55.1438   40.5848 H   0  0  0  0  0  0
   71.1729   54.6277   42.0675 H   0  0  0  0  0  0
   70.8581   57.0896   41.6605 H   0  0  0  0  0  0
   71.6950   56.7802   43.1586 H   0  0  0  0  0  0
   72.8361   58.6136   41.9617 H   0  0  0  0  0  0
   72.9754   57.6451   40.5184 H   0  0  0  0  0  0
   75.3619   56.7721   43.9378 H   0  0  0  0  0  0
   74.3162   58.2111   43.8733 H   0  0  0  0  0  0
   73.5942   56.5933   44.0460 H   0  0  0  0  0  0
   76.4000   57.4736   41.9047 H   0  0  0  0  0  0
   75.4235   57.8465   40.4640 H   0  0  0  0  0  0
   75.3356   58.9002   41.8959 H   0  0  0  0  0  0
   75.4572   55.1825   42.1087 H   0  0  0  0  0  0
   74.6202   55.4920   40.6107 H   0  0  0  0  0  0
  1  2  1  0  0  0
  1  7  2  0  0  0
  1 22  1  0  0  0
  2  3  2  0  0  0
  2 13  1  0  0  0
  3  4  1  0  0  0
  3 10  1  0  0  0
  4  5  1  0  0  0
  4 21  1  0  0  0
  5  6  2  0  0  0
  5  7  1  0  0  0
  7  8  1  0  0  0
  8  9  3  0  0  0
 10 11  1  0  0  0
 10 14  1  0  0  0
 10 23  1  0  0  0
 11 12  1  0  0  0
 11 15  1  0  0  0
 11 16  1  0  0  0
 12 13  1  0  0  0
 12 17  1  0  0  0
 12 18  1  0  0  0
 13 19  1  0  0  0
 13 20  1  0  0  0
 23 24  1  0  0  0
 23 30  1  0  0  0
 23 31  1  0  0  0
 24 25  1  0  0  0
 24 32  1  0  0  0
 24 33  1  0  0  0
 25 26  1  0  0  0
 25 34  1  0  0  0
 25 35  1  0  0  0
 26 27  1  0  0  0
 26 36  1  0  0  0
 26 37  1  0  0  0
 27 28  1  0  0  0
 27 29  1  0  0  0
 27 30  1  0  0  0
 28 38  1  0  0  0
 28 39  1  0  0  0
 28 40  1  0  0  0
 29 41  1  0  0  0
 29 42  1  0  0  0
 29 43  1  0  0  0
 30 44  1  0  0  0
 30 45  1  0  0  0
M  END
> <b_m_subgroup_collapsed>
0

> <s_m_subgroup_title>
enumerate_135-out

> <s_m_subgroupid>
enumerate_135-out

$$$$
