11937-1
                    3D
 Schrodinger Suite 2024-3.
 44 48  0  0  1  0            999 V2000
   76.7152   51.2564   42.5117 C   0  0  0  0  0  0
   75.6469   51.8672   41.7091 C   0  0  0  0  0  0
   74.7156   52.5958   42.3599 C   0  0  0  0  0  0
   74.7624   52.7581   43.7471 N   0  0  0  0  0  0
   75.7023   52.2182   44.5484 C   0  0  0  0  0  0
   75.6665   52.3767   45.7684 O   0  0  0  0  0  0
   76.7303   51.4438   43.8559 C   0  0  0  0  0  0
   77.7066   50.8711   44.7216 C   0  0  0  0  0  0
   78.4723   50.4247   45.4646 N   0  0  0  0  0  0
   73.5301   53.2752   41.6754 C   0  0  2  0  0  0
   73.5536   53.2080   40.1403 C   0  0  0  0  0  0
   74.1629   51.9154   39.6394 C   0  0  0  0  0  0
   75.5862   51.7783   40.1806 C   0  0  0  0  0  0
   72.6664   52.6907   41.9933 H   0  0  0  0  0  0
   72.5491   53.3463   39.7375 H   0  0  0  0  0  0
   74.1721   53.9906   39.7152 H   0  0  0  0  0  0
   73.5550   51.0645   39.9511 H   0  0  0  0  0  0
   74.1759   51.9052   38.5496 H   0  0  0  0  0  0
   76.2138   52.5768   39.7810 H   0  0  0  0  0  0
   75.9881   50.8598   39.7711 H   0  0  0  0  0  0
   74.0228   53.3179   44.1572 H   0  0  0  0  0  0
   78.2659   50.0552   41.5379 R   0  0  0  0  0  0
   73.3432   54.6822   42.1606 C   0  0  1  0  0  0
   72.0405   54.8351   43.0287 C   0  0  0  0  0  0
   71.8757   56.3202   43.5201 C   0  0  1  0  0  0
   73.1494   56.7823   44.2452 C   0  0  0  0  0  0
   74.1825   56.6943   43.1009 C   0  0  1  0  0  0
   74.5613   55.2063   42.9371 C   0  0  0  0  0  0
   73.3618   57.0304   41.8101 C   0  0  2  0  0  0
   71.9274   57.2827   42.3232 C   0  0  0  0  0  0
   73.3393   55.7067   41.0152 C   0  0  0  0  0  0
   71.1670   54.5348   42.4477 H   0  0  0  0  0  0
   72.0811   54.1605   43.8853 H   0  0  0  0  0  0
   70.9767   56.4512   44.1258 H   0  0  0  0  0  0
   73.3969   56.1586   45.1063 H   0  0  0  0  0  0
   73.0523   57.8058   44.6145 H   0  0  0  0  0  0
   75.0501   57.3371   43.2630 H   0  0  0  0  0  0
   74.7148   54.6875   43.8853 H   0  0  0  0  0  0
   75.4834   55.0925   42.3623 H   0  0  0  0  0  0
   73.7574   57.8665   41.2298 H   0  0  0  0  0  0
   71.7948   58.3208   42.6367 H   0  0  0  0  0  0
   71.1548   57.0767   41.5799 H   0  0  0  0  0  0
   74.2259   55.6074   40.3846 H   0  0  0  0  0  0
   72.4728   55.6057   40.3590 H   0  0  0  0  0  0
  1  2  1  0  0  0
  1  7  2  0  0  0
  1 22  1  0  0  0
  2  3  2  0  0  0
  2 13  1  0  0  0
  3  4  1  0  0  0
  3 10  1  0  0  0
  4  5  1  0  0  0
  4 21  1  0  0  0
  5  6  2  0  0  0
  5  7  1  0  0  0
  7  8  1  0  0  0
  8  9  3  0  0  0
 10 11  1  0  0  0
 10 14  1  0  0  0
 10 23  1  0  0  0
 11 12  1  0  0  0
 11 15  1  0  0  0
 11 16  1  0  0  0
 12 13  1  0  0  0
 12 17  1  0  0  0
 12 18  1  0  0  0
 13 19  1  0  0  0
 13 20  1  0  0  0
 23 24  1  0  0  0
 23 28  1  0  0  0
 23 31  1  0  0  0
 24 25  1  0  0  0
 24 32  1  0  0  0
 24 33  1  0  0  0
 25 26  1  0  0  0
 25 30  1  0  0  0
 25 34  1  0  0  0
 26 27  1  0  0  0
 26 35  1  0  0  0
 26 36  1  0  0  0
 27 28  1  0  0  0
 27 29  1  0  0  0
 27 37  1  0  0  0
 28 38  1  0  0  0
 28 39  1  0  0  0
 29 30  1  0  0  0
 29 31  1  0  0  0
 29 40  1  0  0  0
 30 41  1  0  0  0
 30 42  1  0  0  0
 31 43  1  0  0  0
 31 44  1  0  0  0
M  END
> <b_m_subgroup_collapsed>
0

> <s_m_subgroup_title>
enumerate_135-out

> <s_m_subgroupid>
enumerate_135-out

$$$$
