41329-2
                    3D
 Schrodinger Suite 2024-3.
 45 47  0  0  1  0            999 V2000
   76.7152   51.2564   42.5117 C   0  0  0  0  0  0
   75.6469   51.8672   41.7091 C   0  0  0  0  0  0
   74.7156   52.5958   42.3599 C   0  0  0  0  0  0
   74.7624   52.7581   43.7471 N   0  0  0  0  0  0
   75.7023   52.2182   44.5484 C   0  0  0  0  0  0
   75.6665   52.3767   45.7684 O   0  0  0  0  0  0
   76.7303   51.4438   43.8559 C   0  0  0  0  0  0
   77.7066   50.8711   44.7216 C   0  0  0  0  0  0
   78.4723   50.4247   45.4646 N   0  0  0  0  0  0
   73.5301   53.2752   41.6754 C   0  0  2  0  0  0
   73.5536   53.2080   40.1403 C   0  0  0  0  0  0
   74.1629   51.9154   39.6394 C   0  0  0  0  0  0
   75.5862   51.7783   40.1806 C   0  0  0  0  0  0
   72.6664   52.6907   41.9933 H   0  0  0  0  0  0
   72.5491   53.3463   39.7375 H   0  0  0  0  0  0
   74.1721   53.9906   39.7152 H   0  0  0  0  0  0
   73.5550   51.0645   39.9511 H   0  0  0  0  0  0
   74.1759   51.9052   38.5496 H   0  0  0  0  0  0
   76.2138   52.5768   39.7810 H   0  0  0  0  0  0
   75.9881   50.8598   39.7711 H   0  0  0  0  0  0
   74.0228   53.3179   44.1572 H   0  0  0  0  0  0
   78.2659   50.0552   41.5379 R   0  0  0  0  0  0
   73.3432   54.6822   42.1606 C   0  0  2  0  0  0
   72.0484   54.8645   42.9431 C   0  0  0  0  0  0
   71.7759   56.3382   42.7488 C   0  0  1  0  0  0
   70.4682   56.6920   43.0116 O   0  0  0  0  0  0
   72.6620   57.1670   43.6307 C   0  0  0  0  0  0
   72.3559   56.9193   44.9534 O   0  0  0  0  0  0
   72.1546   56.5333   41.2857 C   0  0  0  0  0  0
   72.5540   57.9458   40.9772 C   0  0  0  0  0  0
   71.0142   56.1697   40.3817 C   0  0  0  0  0  0
   73.2331   55.6131   41.0765 O   0  0  0  0  0  0
   74.2099   54.9438   42.7711 H   0  0  0  0  0  0
   71.2519   54.2600   42.5039 H   0  0  0  0  0  0
   72.1463   54.5773   43.9913 H   0  0  0  0  0  0
   73.7044   56.9084   43.4445 H   0  0  0  0  0  0
   72.5053   58.2235   43.4133 H   0  0  0  0  0  0
   71.7063   58.6090   41.1495 H   0  0  0  0  0  0
   73.3816   58.2387   41.6232 H   0  0  0  0  0  0
   72.8643   58.0162   39.9346 H   0  0  0  0  0  0
   70.1909   56.8669   40.5370 H   0  0  0  0  0  0
   71.3428   56.2210   39.3436 H   0  0  0  0  0  0
   70.6802   55.1570   40.6074 H   0  0  0  0  0  0
   69.8749   55.9380   43.2936 H   0  0  0  0  0  0
   72.9011   57.4321   45.6165 H   0  0  0  0  0  0
  1  2  1  0  0  0
  1  7  2  0  0  0
  1 22  1  0  0  0
  2  3  2  0  0  0
  2 13  1  0  0  0
  3  4  1  0  0  0
  3 10  1  0  0  0
  4  5  1  0  0  0
  4 21  1  0  0  0
  5  6  2  0  0  0
  5  7  1  0  0  0
  7  8  1  0  0  0
  8  9  3  0  0  0
 10 11  1  0  0  0
 10 14  1  0  0  0
 10 23  1  0  0  0
 11 12  1  0  0  0
 11 15  1  0  0  0
 11 16  1  0  0  0
 12 13  1  0  0  0
 12 17  1  0  0  0
 12 18  1  0  0  0
 13 19  1  0  0  0
 13 20  1  0  0  0
 23 24  1  0  0  0
 23 32  1  0  0  0
 23 33  1  0  0  0
 24 25  1  0  0  0
 24 34  1  0  0  0
 24 35  1  0  0  0
 25 26  1  0  0  0
 25 27  1  0  0  0
 25 29  1  0  0  0
 26 44  1  0  0  0
 27 28  1  0  0  0
 27 36  1  0  0  0
 27 37  1  0  0  0
 28 45  1  0  0  0
 29 30  1  0  0  0
 29 31  1  0  0  0
 29 32  1  0  0  0
 30 38  1  0  0  0
 30 39  1  0  0  0
 30 40  1  0  0  0
 31 41  1  0  0  0
 31 42  1  0  0  0
 31 43  1  0  0  0
M  END
> <b_m_subgroup_collapsed>
0

> <s_m_subgroup_title>
enumerate_136-out

> <s_m_subgroupid>
enumerate_136-out

$$$$
