8924-1
                    3D
 Schrodinger Suite 2024-3.
 44 47  0  0  1  0            999 V2000
   76.7152   51.2564   42.5117 C   0  0  0  0  0  0
   75.6469   51.8672   41.7091 C   0  0  0  0  0  0
   74.7156   52.5958   42.3599 C   0  0  0  0  0  0
   74.7624   52.7581   43.7471 N   0  0  0  0  0  0
   75.7023   52.2182   44.5484 C   0  0  0  0  0  0
   75.6665   52.3767   45.7684 O   0  0  0  0  0  0
   76.7303   51.4438   43.8559 C   0  0  0  0  0  0
   77.7066   50.8711   44.7216 C   0  0  0  0  0  0
   78.4723   50.4247   45.4646 N   0  0  0  0  0  0
   73.5301   53.2752   41.6754 C   0  0  2  0  0  0
   73.5536   53.2080   40.1403 C   0  0  0  0  0  0
   74.1629   51.9154   39.6394 C   0  0  0  0  0  0
   75.5862   51.7783   40.1806 C   0  0  0  0  0  0
   72.6664   52.6907   41.9933 H   0  0  0  0  0  0
   72.5491   53.3463   39.7375 H   0  0  0  0  0  0
   74.1721   53.9906   39.7152 H   0  0  0  0  0  0
   73.5550   51.0645   39.9511 H   0  0  0  0  0  0
   74.1759   51.9052   38.5496 H   0  0  0  0  0  0
   76.2138   52.5768   39.7810 H   0  0  0  0  0  0
   75.9881   50.8598   39.7711 H   0  0  0  0  0  0
   74.0228   53.3179   44.1572 H   0  0  0  0  0  0
   78.2659   50.0552   41.5379 R   0  0  0  0  0  0
   73.3432   54.6822   42.1606 C   0  0  0  0  0  0
   74.2606   55.6111   41.8191 C   0  0  0  0  0  0
   74.1397   57.0629   42.2921 C   0  0  2  0  0  0
   74.5587   57.1780   43.7683 C   0  0  0  0  0  0
   73.3147   56.7326   44.5740 C   0  0  0  0  0  0
   72.1946   56.5013   43.5307 C   0  0  2  0  0  0
   72.1303   55.0205   43.0345 C   0  0  0  0  0  0
   72.6418   57.4149   42.3773 C   0  0  1  0  0  0
   72.4415   58.8619   42.7182 C   0  0  0  0  0  0
   75.1131   55.3160   41.2213 H   0  0  0  0  0  0
   74.6842   57.7440   41.6347 H   0  0  0  0  0  0
   75.4427   56.5813   44.0015 H   0  0  0  0  0  0
   74.8050   58.2147   44.0060 H   0  0  0  0  0  0
   73.0267   57.5149   45.2787 H   0  0  0  0  0  0
   73.5135   55.8359   45.1636 H   0  0  0  0  0  0
   71.2220   56.7973   43.9293 H   0  0  0  0  0  0
   71.2244   54.8621   42.4473 H   0  0  0  0  0  0
   72.0695   54.3323   43.8789 H   0  0  0  0  0  0
   72.1021   57.2255   41.4470 H   0  0  0  0  0  0
   72.9667   59.0930   43.6449 H   0  0  0  0  0  0
   72.8347   59.4826   41.9131 H   0  0  0  0  0  0
   71.3773   59.0615   42.8442 H   0  0  0  0  0  0
  1  2  1  0  0  0
  1  7  2  0  0  0
  1 22  1  0  0  0
  2  3  2  0  0  0
  2 13  1  0  0  0
  3  4  1  0  0  0
  3 10  1  0  0  0
  4  5  1  0  0  0
  4 21  1  0  0  0
  5  6  2  0  0  0
  5  7  1  0  0  0
  7  8  1  0  0  0
  8  9  3  0  0  0
 10 11  1  0  0  0
 10 14  1  0  0  0
 10 23  1  0  0  0
 11 12  1  0  0  0
 11 15  1  0  0  0
 11 16  1  0  0  0
 12 13  1  0  0  0
 12 17  1  0  0  0
 12 18  1  0  0  0
 13 19  1  0  0  0
 13 20  1  0  0  0
 23 24  2  0  0  0
 23 29  1  0  0  0
 24 25  1  0  0  0
 24 32  1  0  0  0
 25 26  1  0  0  0
 25 30  1  0  0  0
 25 33  1  0  0  0
 26 27  1  0  0  0
 26 34  1  0  0  0
 26 35  1  0  0  0
 27 28  1  0  0  0
 27 36  1  0  0  0
 27 37  1  0  0  0
 28 29  1  0  0  0
 28 30  1  0  0  0
 28 38  1  0  0  0
 29 39  1  0  0  0
 29 40  1  0  0  0
 30 31  1  0  0  0
 30 41  1  0  0  0
 31 42  1  0  0  0
 31 43  1  0  0  0
 31 44  1  0  0  0
M  END
> <b_m_subgroup_collapsed>
0

> <s_m_subgroup_title>
enumerate_135-out

> <s_m_subgroupid>
enumerate_135-out

$$$$
