6760-1
                    3D
 Schrodinger Suite 2024-3.
 48 52  0  0  1  0            999 V2000
   76.7152   51.2564   42.5117 C   0  0  0  0  0  0
   75.6469   51.8672   41.7091 C   0  0  0  0  0  0
   74.7156   52.5958   42.3599 C   0  0  0  0  0  0
   74.7624   52.7581   43.7471 N   0  0  0  0  0  0
   75.7023   52.2182   44.5484 C   0  0  0  0  0  0
   75.6665   52.3767   45.7684 O   0  0  0  0  0  0
   76.7303   51.4438   43.8559 C   0  0  0  0  0  0
   77.7066   50.8711   44.7216 C   0  0  0  0  0  0
   78.4723   50.4247   45.4646 N   0  0  0  0  0  0
   73.5301   53.2752   41.6754 C   0  0  2  0  0  0
   73.5536   53.2080   40.1403 C   0  0  0  0  0  0
   74.1629   51.9154   39.6394 C   0  0  0  0  0  0
   75.5862   51.7783   40.1806 C   0  0  0  0  0  0
   72.6664   52.6907   41.9933 H   0  0  0  0  0  0
   72.5491   53.3463   39.7375 H   0  0  0  0  0  0
   74.1721   53.9906   39.7152 H   0  0  0  0  0  0
   73.5550   51.0645   39.9511 H   0  0  0  0  0  0
   74.1759   51.9052   38.5496 H   0  0  0  0  0  0
   76.2138   52.5768   39.7810 H   0  0  0  0  0  0
   75.9881   50.8598   39.7711 H   0  0  0  0  0  0
   74.0228   53.3179   44.1572 H   0  0  0  0  0  0
   78.2659   50.0552   41.5379 R   0  0  0  0  0  0
   73.3582   54.5697   42.1217 O   0  0  0  0  0  0
   72.2318   54.7763   42.8917 C   0  0  0  0  0  0
   72.6504   55.2855   44.2885 C   0  0  0  0  0  0
   71.3892   55.5165   45.1495 C   0  0  1  0  0  0
   70.4855   56.5677   44.4686 C   0  0  0  0  0  0
   70.0683   56.0579   43.0717 C   0  0  2  0  0  0
   69.2929   54.7302   43.2175 C   0  0  0  0  0  0
   70.1974   53.6802   43.8994 C   0  0  2  0  0  0
   70.6145   54.1886   45.2968 C   0  0  0  0  0  0
   71.4579   53.4476   43.0378 C   0  0  0  0  0  0
   71.3285   55.8269   42.2092 C   0  0  0  0  0  0
   73.3108   54.5641   44.7716 H   0  0  0  0  0  0
   73.2210   56.2107   44.1982 H   0  0  0  0  0  0
   71.6843   55.8759   46.1361 H   0  0  0  0  0  0
   71.0117   57.5193   44.3821 H   0  0  0  0  0  0
   69.6029   56.7600   45.0800 H   0  0  0  0  0  0
   69.4300   56.7998   42.5902 H   0  0  0  0  0  0
   68.3856   54.8847   43.8030 H   0  0  0  0  0  0
   68.9693   54.3721   42.2394 H   0  0  0  0  0  0
   69.6503   52.7423   44.0028 H   0  0  0  0  0  0
   71.2325   53.4443   45.8008 H   0  0  0  0  0  0
   69.7343   54.3323   45.9248 H   0  0  0  0  0  0
   71.1789   53.0627   42.0560 H   0  0  0  0  0  0
   72.0935   52.6883   43.4954 H   0  0  0  0  0  0
   71.8719   56.7632   42.0758 H   0  0  0  0  0  0
   71.0464   55.4911   41.2104 H   0  0  0  0  0  0
  1  2  1  0  0  0
  1  7  2  0  0  0
  1 22  1  0  0  0
  2  3  2  0  0  0
  2 13  1  0  0  0
  3  4  1  0  0  0
  3 10  1  0  0  0
  4  5  1  0  0  0
  4 21  1  0  0  0
  5  6  2  0  0  0
  5  7  1  0  0  0
  7  8  1  0  0  0
  8  9  3  0  0  0
 10 11  1  0  0  0
 10 14  1  0  0  0
 10 23  1  0  0  0
 11 12  1  0  0  0
 11 15  1  0  0  0
 11 16  1  0  0  0
 12 13  1  0  0  0
 12 17  1  0  0  0
 12 18  1  0  0  0
 13 19  1  0  0  0
 13 20  1  0  0  0
 23 24  1  0  0  0
 24 25  1  0  0  0
 24 32  1  0  0  0
 24 33  1  0  0  0
 25 26  1  0  0  0
 25 34  1  0  0  0
 25 35  1  0  0  0
 26 27  1  0  0  0
 26 31  1  0  0  0
 26 36  1  0  0  0
 27 28  1  0  0  0
 27 37  1  0  0  0
 27 38  1  0  0  0
 28 29  1  0  0  0
 28 33  1  0  0  0
 28 39  1  0  0  0
 29 30  1  0  0  0
 29 40  1  0  0  0
 29 41  1  0  0  0
 30 31  1  0  0  0
 30 32  1  0  0  0
 30 42  1  0  0  0
 31 43  1  0  0  0
 31 44  1  0  0  0
 32 45  1  0  0  0
 32 46  1  0  0  0
 33 47  1  0  0  0
 33 48  1  0  0  0
M  END
> <b_m_subgroup_collapsed>
0

> <s_m_subgroup_title>
enumerate_135-out

> <s_m_subgroupid>
enumerate_135-out

$$$$
