615-1
                    3D
 Schrodinger Suite 2024-3.
 42 43  0  0  1  0            999 V2000
   76.7152   51.2564   42.5117 C   0  0  0  0  0  0
   75.6469   51.8672   41.7091 C   0  0  0  0  0  0
   74.7156   52.5958   42.3599 C   0  0  0  0  0  0
   74.7624   52.7581   43.7471 N   0  0  0  0  0  0
   75.7023   52.2182   44.5484 C   0  0  0  0  0  0
   75.6665   52.3767   45.7684 O   0  0  0  0  0  0
   76.7303   51.4438   43.8559 C   0  0  0  0  0  0
   77.7066   50.8711   44.7216 C   0  0  0  0  0  0
   78.4723   50.4247   45.4646 N   0  0  0  0  0  0
   73.5301   53.2752   41.6754 C   0  0  2  0  0  0
   73.5536   53.2080   40.1403 C   0  0  0  0  0  0
   74.1629   51.9154   39.6394 C   0  0  0  0  0  0
   75.5862   51.7783   40.1806 C   0  0  0  0  0  0
   72.6664   52.6907   41.9933 H   0  0  0  0  0  0
   72.5491   53.3463   39.7375 H   0  0  0  0  0  0
   74.1721   53.9906   39.7152 H   0  0  0  0  0  0
   73.5550   51.0645   39.9511 H   0  0  0  0  0  0
   74.1759   51.9052   38.5496 H   0  0  0  0  0  0
   76.2138   52.5768   39.7810 H   0  0  0  0  0  0
   75.9881   50.8598   39.7711 H   0  0  0  0  0  0
   74.0228   53.3179   44.1572 H   0  0  0  0  0  0
   78.2659   50.0552   41.5379 R   0  0  0  0  0  0
   73.3432   54.6822   42.1606 C   0  0  0  0  0  0
   74.2488   55.4758   42.3994 O   0  0  0  0  0  0
   72.0540   54.9884   42.3091 N   0  0  0  0  0  0
   71.5351   56.2748   42.7646 C   0  0  0  0  0  0
   70.6570   56.8646   41.7012 C   0  0  0  0  0  0
   70.1239   58.1863   42.1692 C   0  0  0  0  0  0
   69.3255   57.9875   43.4234 C   0  0  0  0  0  0
   69.2458   58.7761   41.1057 C   0  0  0  0  0  0
   72.3660   56.9509   42.9661 H   0  0  0  0  0  0
   70.9550   56.1304   43.6760 H   0  0  0  0  0  0
   69.8262   56.1884   41.4997 H   0  0  0  0  0  0
   71.2371   57.0090   40.7897 H   0  0  0  0  0  0
   70.9547   58.8624   42.3706 H   0  0  0  0  0  0
   68.4947   57.3114   43.2220 H   0  0  0  0  0  0
   68.9381   58.9479   43.7635 H   0  0  0  0  0  0
   69.9636   57.5589   44.1962 H   0  0  0  0  0  0
   68.4149   58.0999   40.9042 H   0  0  0  0  0  0
   68.8584   59.7365   41.4458 H   0  0  0  0  0  0
   69.8259   58.9205   40.1943 H   0  0  0  0  0  0
   71.2788   54.3678   42.1246 H   0  0  0  0  0  0
  1  2  1  0  0  0
  1  7  2  0  0  0
  1 22  1  0  0  0
  2  3  2  0  0  0
  2 13  1  0  0  0
  3  4  1  0  0  0
  3 10  1  0  0  0
  4  5  1  0  0  0
  4 21  1  0  0  0
  5  6  2  0  0  0
  5  7  1  0  0  0
  7  8  1  0  0  0
  8  9  3  0  0  0
 10 11  1  0  0  0
 10 14  1  0  0  0
 10 23  1  0  0  0
 11 12  1  0  0  0
 11 15  1  0  0  0
 11 16  1  0  0  0
 12 13  1  0  0  0
 12 17  1  0  0  0
 12 18  1  0  0  0
 13 19  1  0  0  0
 13 20  1  0  0  0
 23 24  2  0  0  0
 23 25  1  0  0  0
 25 26  1  0  0  0
 25 42  1  0  0  0
 26 27  1  0  0  0
 26 31  1  0  0  0
 26 32  1  0  0  0
 27 28  1  0  0  0
 27 33  1  0  0  0
 27 34  1  0  0  0
 28 29  1  0  0  0
 28 30  1  0  0  0
 28 35  1  0  0  0
 29 36  1  0  0  0
 29 37  1  0  0  0
 29 38  1  0  0  0
 30 39  1  0  0  0
 30 40  1  0  0  0
 30 41  1  0  0  0
M  END
> <b_m_subgroup_collapsed>
0

> <s_m_subgroup_title>
enumerate_136-out

> <s_m_subgroupid>
enumerate_136-out

$$$$
