8924-2
                    3D
 Schrodinger Suite 2024-3.
 44 47  0  0  1  0            999 V2000
   76.7152   51.2564   42.5117 C   0  0  0  0  0  0
   75.6469   51.8672   41.7091 C   0  0  0  0  0  0
   74.7156   52.5958   42.3599 C   0  0  0  0  0  0
   74.7624   52.7581   43.7471 N   0  0  0  0  0  0
   75.7023   52.2182   44.5484 C   0  0  0  0  0  0
   75.6665   52.3767   45.7684 O   0  0  0  0  0  0
   76.7303   51.4438   43.8559 C   0  0  0  0  0  0
   77.7066   50.8711   44.7216 C   0  0  0  0  0  0
   78.4723   50.4247   45.4646 N   0  0  0  0  0  0
   73.5301   53.2752   41.6754 C   0  0  2  0  0  0
   73.5536   53.2080   40.1403 C   0  0  0  0  0  0
   74.1629   51.9154   39.6394 C   0  0  0  0  0  0
   75.5862   51.7783   40.1806 C   0  0  0  0  0  0
   72.6664   52.6907   41.9933 H   0  0  0  0  0  0
   72.5491   53.3463   39.7375 H   0  0  0  0  0  0
   74.1721   53.9906   39.7152 H   0  0  0  0  0  0
   73.5550   51.0645   39.9511 H   0  0  0  0  0  0
   74.1759   51.9052   38.5496 H   0  0  0  0  0  0
   76.2138   52.5768   39.7810 H   0  0  0  0  0  0
   75.9881   50.8598   39.7711 H   0  0  0  0  0  0
   74.0228   53.3179   44.1572 H   0  0  0  0  0  0
   78.2659   50.0552   41.5379 R   0  0  0  0  0  0
   73.3432   54.6822   42.1606 C   0  0  0  0  0  0
   72.2647   54.9664   42.9203 C   0  0  0  0  0  0
   72.0202   56.3781   43.4615 C   0  0  1  0  0  0
   72.9477   56.6574   44.6571 C   0  0  0  0  0  0
   74.3052   57.0524   44.0277 C   0  0  0  0  0  0
   74.0643   57.1052   42.4994 C   0  0  1  0  0  0
   74.3817   55.7478   41.7924 C   0  0  0  0  0  0
   72.5542   57.3866   42.4258 C   0  0  1  0  0  0
   71.9838   57.1816   41.0537 C   0  0  0  0  0  0
   71.5740   54.1728   43.1738 H   0  0  0  0  0  0
   70.9644   56.5424   43.6870 H   0  0  0  0  0  0
   72.5551   57.4878   45.2474 H   0  0  0  0  0  0
   73.0330   55.8027   45.3310 H   0  0  0  0  0  0
   75.0949   56.3466   44.2913 H   0  0  0  0  0  0
   74.6193   58.0292   44.4003 H   0  0  0  0  0  0
   74.6491   57.9043   42.0389 H   0  0  0  0  0  0
   75.3843   55.4030   42.0502 H   0  0  0  0  0  0
   74.3747   55.8798   40.7094 H   0  0  0  0  0  0
   72.3266   58.4140   42.7191 H   0  0  0  0  0  0
   72.1904   56.1639   40.7227 H   0  0  0  0  0  0
   70.9062   57.3434   41.0803 H   0  0  0  0  0  0
   72.4404   57.8887   40.3611 H   0  0  0  0  0  0
  1  2  1  0  0  0
  1  7  2  0  0  0
  1 22  1  0  0  0
  2  3  2  0  0  0
  2 13  1  0  0  0
  3  4  1  0  0  0
  3 10  1  0  0  0
  4  5  1  0  0  0
  4 21  1  0  0  0
  5  6  2  0  0  0
  5  7  1  0  0  0
  7  8  1  0  0  0
  8  9  3  0  0  0
 10 11  1  0  0  0
 10 14  1  0  0  0
 10 23  1  0  0  0
 11 12  1  0  0  0
 11 15  1  0  0  0
 11 16  1  0  0  0
 12 13  1  0  0  0
 12 17  1  0  0  0
 12 18  1  0  0  0
 13 19  1  0  0  0
 13 20  1  0  0  0
 23 24  2  0  0  0
 23 29  1  0  0  0
 24 25  1  0  0  0
 24 32  1  0  0  0
 25 26  1  0  0  0
 25 30  1  0  0  0
 25 33  1  0  0  0
 26 27  1  0  0  0
 26 34  1  0  0  0
 26 35  1  0  0  0
 27 28  1  0  0  0
 27 36  1  0  0  0
 27 37  1  0  0  0
 28 29  1  0  0  0
 28 30  1  0  0  0
 28 38  1  0  0  0
 29 39  1  0  0  0
 29 40  1  0  0  0
 30 31  1  0  0  0
 30 41  1  0  0  0
 31 42  1  0  0  0
 31 43  1  0  0  0
 31 44  1  0  0  0
M  END
> <b_m_subgroup_collapsed>
0

> <s_m_subgroup_title>
enumerate_135-out

> <s_m_subgroupid>
enumerate_135-out

$$$$
