27105-1
                    3D
 Schrodinger Suite 2024-3.
 41 43  0  0  1  0            999 V2000
   76.7152   51.2564   42.5117 C   0  0  0  0  0  0
   75.6469   51.8672   41.7091 C   0  0  0  0  0  0
   74.7156   52.5958   42.3599 C   0  0  0  0  0  0
   74.7624   52.7581   43.7471 N   0  0  0  0  0  0
   75.7023   52.2182   44.5484 C   0  0  0  0  0  0
   75.6665   52.3767   45.7684 O   0  0  0  0  0  0
   76.7303   51.4438   43.8559 C   0  0  0  0  0  0
   77.7066   50.8711   44.7216 C   0  0  0  0  0  0
   78.4723   50.4247   45.4646 N   0  0  0  0  0  0
   73.5301   53.2752   41.6754 C   0  0  2  0  0  0
   73.5536   53.2080   40.1403 C   0  0  0  0  0  0
   74.1629   51.9154   39.6394 C   0  0  0  0  0  0
   75.5862   51.7783   40.1806 C   0  0  0  0  0  0
   72.6664   52.6907   41.9933 H   0  0  0  0  0  0
   72.5491   53.3463   39.7375 H   0  0  0  0  0  0
   74.1721   53.9906   39.7152 H   0  0  0  0  0  0
   73.5550   51.0645   39.9511 H   0  0  0  0  0  0
   74.1759   51.9052   38.5496 H   0  0  0  0  0  0
   76.2138   52.5768   39.7810 H   0  0  0  0  0  0
   75.9881   50.8598   39.7711 H   0  0  0  0  0  0
   74.0228   53.3179   44.1572 H   0  0  0  0  0  0
   78.2659   50.0552   41.5379 R   0  0  0  0  0  0
   70.3291   59.0959   45.8842 C   0  0  0  0  0  0
   71.3977   58.2227   45.8874 O   0  0  0  0  0  0
   71.9901   58.0215   44.6574 C   0  0  1  0  0  0
   73.0194   56.8849   44.5936 C   0  0  0  0  0  0
   72.4543   56.5392   43.2092 C   0  0  1  0  0  0
   72.3372   55.0755   42.9026 C   0  0  0  0  0  0
   71.4319   54.3411   43.2870 O   0  0  0  0  0  0
   73.3482   54.6447   42.1476 N   0  0  0  0  0  0
   71.1550   57.2342   43.6386 C   0  0  0  0  0  0
   69.9320   59.1879   46.8951 H   0  0  0  0  0  0
   70.6598   60.0735   45.5334 H   0  0  0  0  0  0
   69.5514   58.7161   45.2216 H   0  0  0  0  0  0
   72.3610   58.9792   44.2837 H   0  0  0  0  0  0
   72.8677   56.1046   45.3437 H   0  0  0  0  0  0
   74.0662   57.1936   44.6132 H   0  0  0  0  0  0
   72.9706   57.0326   42.3819 H   0  0  0  0  0  0
   70.6620   57.8314   42.8692 H   0  0  0  0  0  0
   70.4195   56.5633   44.0895 H   0  0  0  0  0  0
   74.1118   55.2131   41.8101 H   0  0  0  0  0  0
  1  2  1  0  0  0
  1  7  2  0  0  0
  1 22  1  0  0  0
  2  3  2  0  0  0
  2 13  1  0  0  0
  3  4  1  0  0  0
  3 10  1  0  0  0
  4  5  1  0  0  0
  4 21  1  0  0  0
  5  6  2  0  0  0
  5  7  1  0  0  0
  7  8  1  0  0  0
  8  9  3  0  0  0
 10 11  1  0  0  0
 10 14  1  0  0  0
 10 30  1  0  0  0
 11 12  1  0  0  0
 11 15  1  0  0  0
 11 16  1  0  0  0
 12 13  1  0  0  0
 12 17  1  0  0  0
 12 18  1  0  0  0
 13 19  1  0  0  0
 13 20  1  0  0  0
 23 24  1  0  0  0
 23 32  1  0  0  0
 23 33  1  0  0  0
 23 34  1  0  0  0
 24 25  1  0  0  0
 25 26  1  0  0  0
 25 31  1  0  0  0
 25 35  1  0  0  0
 26 27  1  0  0  0
 26 36  1  0  0  0
 26 37  1  0  0  0
 27 28  1  0  0  0
 27 31  1  0  0  0
 27 38  1  0  0  0
 28 29  2  0  0  0
 28 30  1  0  0  0
 30 41  1  0  0  0
 31 39  1  0  0  0
 31 40  1  0  0  0
M  END
> <b_m_subgroup_collapsed>
0

> <s_m_subgroup_title>
enumerate_136-out

> <s_m_subgroupid>
enumerate_136-out

$$$$
