31145-1
                    3D
 Schrodinger Suite 2024-3.
 37 39  0  0  1  0            999 V2000
   76.7152   51.2564   42.5117 C   0  0  0  0  0  0
   75.6469   51.8672   41.7091 C   0  0  0  0  0  0
   74.7156   52.5958   42.3599 C   0  0  0  0  0  0
   74.7624   52.7581   43.7471 N   0  0  0  0  0  0
   75.7023   52.2182   44.5484 C   0  0  0  0  0  0
   75.6665   52.3767   45.7684 O   0  0  0  0  0  0
   76.7303   51.4438   43.8559 C   0  0  0  0  0  0
   77.7066   50.8711   44.7216 C   0  0  0  0  0  0
   78.4723   50.4247   45.4646 N   0  0  0  0  0  0
   73.5301   53.2752   41.6754 C   0  0  2  0  0  0
   73.5536   53.2080   40.1403 C   0  0  0  0  0  0
   74.1629   51.9154   39.6394 C   0  0  0  0  0  0
   75.5862   51.7783   40.1806 C   0  0  0  0  0  0
   72.6664   52.6907   41.9933 H   0  0  0  0  0  0
   72.5491   53.3463   39.7375 H   0  0  0  0  0  0
   74.1721   53.9906   39.7152 H   0  0  0  0  0  0
   73.5550   51.0645   39.9511 H   0  0  0  0  0  0
   74.1759   51.9052   38.5496 H   0  0  0  0  0  0
   76.2138   52.5768   39.7810 H   0  0  0  0  0  0
   75.9881   50.8598   39.7711 H   0  0  0  0  0  0
   74.0228   53.3179   44.1572 H   0  0  0  0  0  0
   78.2659   50.0552   41.5379 R   0  0  0  0  0  0
   73.3432   54.6822   42.1606 C   0  0  1  0  0  0
   72.0816   54.7149   42.9712 C   0  0  0  0  0  0
   74.5656   55.1410   42.9479 C   0  0  0  0  0  0
   75.1033   56.3321   42.1570 C   0  0  0  0  0  0
   74.6377   56.0243   40.8451 O   0  0  0  0  0  0
   73.2699   55.6440   40.9761 C   0  0  0  0  0  0
   71.9136   55.7263   43.3413 H   0  0  0  0  0  0
   71.2408   54.4121   42.3472 H   0  0  0  0  0  0
   72.1736   54.0301   43.8142 H   0  0  0  0  0  0
   74.3278   55.4201   43.9758 H   0  0  0  0  0  0
   75.3132   54.3465   42.9888 H   0  0  0  0  0  0
   74.6810   57.2781   42.5050 H   0  0  0  0  0  0
   76.1909   56.4100   42.1991 H   0  0  0  0  0  0
   72.8869   55.1699   40.0709 H   0  0  0  0  0  0
   72.6458   56.5143   41.1941 H   0  0  0  0  0  0
  1  2  1  0  0  0
  1  7  2  0  0  0
  1 22  1  0  0  0
  2  3  2  0  0  0
  2 13  1  0  0  0
  3  4  1  0  0  0
  3 10  1  0  0  0
  4  5  1  0  0  0
  4 21  1  0  0  0
  5  6  2  0  0  0
  5  7  1  0  0  0
  7  8  1  0  0  0
  8  9  3  0  0  0
 10 11  1  0  0  0
 10 14  1  0  0  0
 10 23  1  0  0  0
 11 12  1  0  0  0
 11 15  1  0  0  0
 11 16  1  0  0  0
 12 13  1  0  0  0
 12 17  1  0  0  0
 12 18  1  0  0  0
 13 19  1  0  0  0
 13 20  1  0  0  0
 23 24  1  0  0  0
 23 25  1  0  0  0
 23 28  1  0  0  0
 24 29  1  0  0  0
 24 30  1  0  0  0
 24 31  1  0  0  0
 25 26  1  0  0  0
 25 32  1  0  0  0
 25 33  1  0  0  0
 26 27  1  0  0  0
 26 34  1  0  0  0
 26 35  1  0  0  0
 27 28  1  0  0  0
 28 36  1  0  0  0
 28 37  1  0  0  0
M  END
> <b_m_subgroup_collapsed>
0

> <s_m_subgroup_title>
enumerate_135-out

> <s_m_subgroupid>
enumerate_135-out

$$$$
