20312-1
                    3D
 Schrodinger Suite 2024-3.
 46 48  0  0  1  0            999 V2000
   76.7152   51.2564   42.5117 C   0  0  0  0  0  0
   75.6469   51.8672   41.7091 C   0  0  0  0  0  0
   74.7156   52.5958   42.3599 C   0  0  0  0  0  0
   74.7624   52.7581   43.7471 N   0  0  0  0  0  0
   75.7023   52.2182   44.5484 C   0  0  0  0  0  0
   75.6665   52.3767   45.7684 O   0  0  0  0  0  0
   76.7303   51.4438   43.8559 C   0  0  0  0  0  0
   77.7066   50.8711   44.7216 C   0  0  0  0  0  0
   78.4723   50.4247   45.4646 N   0  0  0  0  0  0
   73.5301   53.2752   41.6754 C   0  0  2  0  0  0
   73.5536   53.2080   40.1403 C   0  0  0  0  0  0
   74.1629   51.9154   39.6394 C   0  0  0  0  0  0
   75.5862   51.7783   40.1806 C   0  0  0  0  0  0
   72.6664   52.6907   41.9933 H   0  0  0  0  0  0
   72.5491   53.3463   39.7375 H   0  0  0  0  0  0
   74.1721   53.9906   39.7152 H   0  0  0  0  0  0
   73.5550   51.0645   39.9511 H   0  0  0  0  0  0
   74.1759   51.9052   38.5496 H   0  0  0  0  0  0
   76.2138   52.5768   39.7810 H   0  0  0  0  0  0
   75.9881   50.8598   39.7711 H   0  0  0  0  0  0
   74.0228   53.3179   44.1572 H   0  0  0  0  0  0
   78.2659   50.0552   41.5379 R   0  0  0  0  0  0
   73.3432   54.6822   42.1606 C   0  0  0  0  0  0
   72.0434   55.2216   41.6415 C   0  0  0  0  0  0
   72.1429   55.1732   40.1456 C   0  0  0  0  0  0
   72.0080   56.4478   39.6341 O   0  0  0  0  0  0
   70.8867   54.3228   42.1233 C   0  0  0  0  0  0
   70.6919   54.4111   43.6504 C   0  0  0  0  0  0
   70.5175   55.8691   44.1213 C   0  0  0  0  0  0
   71.6742   56.7678   43.6395 C   0  0  0  0  0  0
   71.8690   56.6796   42.1124 C   0  0  0  0  0  0
   73.3314   54.6922   43.2504 H   0  0  0  0  0  0
   74.1638   55.3027   41.8004 H   0  0  0  0  0  0
   73.1131   54.7675   39.8589 H   0  0  0  0  0  0
   71.3515   54.5370   39.7492 H   0  0  0  0  0  0
   69.9635   54.6198   41.6221 H   0  0  0  0  0  0
   71.0698   53.2880   41.8290 H   0  0  0  0  0  0
   69.8291   53.8150   43.9523 H   0  0  0  0  0  0
   71.5544   53.9685   44.1524 H   0  0  0  0  0  0
   69.5715   56.2616   43.7435 H   0  0  0  0  0  0
   70.4451   55.9043   45.2097 H   0  0  0  0  0  0
   71.4911   57.8027   43.9338 H   0  0  0  0  0  0
   72.5974   56.4708   44.1408 H   0  0  0  0  0  0
   72.7318   57.2757   41.8105 H   0  0  0  0  0  0
   71.0065   57.1222   41.6105 H   0  0  0  0  0  0
   72.0618   56.5111   38.6376 H   0  0  0  0  0  0
  1  2  1  0  0  0
  1  7  2  0  0  0
  1 22  1  0  0  0
  2  3  2  0  0  0
  2 13  1  0  0  0
  3  4  1  0  0  0
  3 10  1  0  0  0
  4  5  1  0  0  0
  4 21  1  0  0  0
  5  6  2  0  0  0
  5  7  1  0  0  0
  7  8  1  0  0  0
  8  9  3  0  0  0
 10 11  1  0  0  0
 10 14  1  0  0  0
 10 23  1  0  0  0
 11 12  1  0  0  0
 11 15  1  0  0  0
 11 16  1  0  0  0
 12 13  1  0  0  0
 12 17  1  0  0  0
 12 18  1  0  0  0
 13 19  1  0  0  0
 13 20  1  0  0  0
 23 24  1  0  0  0
 23 32  1  0  0  0
 23 33  1  0  0  0
 24 25  1  0  0  0
 24 27  1  0  0  0
 24 31  1  0  0  0
 25 26  1  0  0  0
 25 34  1  0  0  0
 25 35  1  0  0  0
 26 46  1  0  0  0
 27 28  1  0  0  0
 27 36  1  0  0  0
 27 37  1  0  0  0
 28 29  1  0  0  0
 28 38  1  0  0  0
 28 39  1  0  0  0
 29 30  1  0  0  0
 29 40  1  0  0  0
 29 41  1  0  0  0
 30 31  1  0  0  0
 30 42  1  0  0  0
 30 43  1  0  0  0
 31 44  1  0  0  0
 31 45  1  0  0  0
M  END
> <b_m_subgroup_collapsed>
0

> <s_m_subgroup_title>
enumerate_136-out

> <s_m_subgroupid>
enumerate_136-out

$$$$
