10387-2
                    3D
 Schrodinger Suite 2024-3.
 44 47  0  0  1  0            999 V2000
   76.7152   51.2564   42.5117 C   0  0  0  0  0  0
   75.6469   51.8672   41.7091 C   0  0  0  0  0  0
   74.7156   52.5958   42.3599 C   0  0  0  0  0  0
   74.7624   52.7581   43.7471 N   0  0  0  0  0  0
   75.7023   52.2182   44.5484 C   0  0  0  0  0  0
   75.6665   52.3767   45.7684 O   0  0  0  0  0  0
   76.7303   51.4438   43.8559 C   0  0  0  0  0  0
   77.7066   50.8711   44.7216 C   0  0  0  0  0  0
   78.4723   50.4247   45.4646 N   0  0  0  0  0  0
   73.5301   53.2752   41.6754 C   0  0  2  0  0  0
   73.5536   53.2080   40.1403 C   0  0  0  0  0  0
   74.1629   51.9154   39.6394 C   0  0  0  0  0  0
   75.5862   51.7783   40.1806 C   0  0  0  0  0  0
   72.6664   52.6907   41.9933 H   0  0  0  0  0  0
   72.5491   53.3463   39.7375 H   0  0  0  0  0  0
   74.1721   53.9906   39.7152 H   0  0  0  0  0  0
   73.5550   51.0645   39.9511 H   0  0  0  0  0  0
   74.1759   51.9052   38.5496 H   0  0  0  0  0  0
   76.2138   52.5768   39.7810 H   0  0  0  0  0  0
   75.9881   50.8598   39.7711 H   0  0  0  0  0  0
   74.0228   53.3179   44.1572 H   0  0  0  0  0  0
   78.2659   50.0552   41.5379 R   0  0  0  0  0  0
   73.3432   54.6822   42.1606 C   0  0  0  0  0  0
   74.2342   55.6432   41.8443 C   0  0  0  0  0  0
   74.0086   57.0695   42.3591 C   0  0  0  0  0  0
   72.6886   57.1029   43.2069 C   0  0  2  0  0  0
   72.6145   55.9312   44.2213 C   0  0  0  0  0  0
   72.1349   55.0651   43.0284 C   0  0  1  0  0  0
   71.5155   56.3813   42.4925 C   0  0  0  0  0  0
   70.1596   56.6988   43.0499 C   0  0  0  0  0  0
   71.4545   56.5313   41.0013 C   0  0  0  0  0  0
   75.0957   55.4040   41.2342 H   0  0  0  0  0  0
   74.8606   57.3863   42.9625 H   0  0  0  0  0  0
   73.9426   57.7622   41.5187 H   0  0  0  0  0  0
   72.4944   58.1063   43.5916 H   0  0  0  0  0  0
   73.5569   55.6364   44.6878 H   0  0  0  0  0  0
   71.8700   56.0628   45.0112 H   0  0  0  0  0  0
   71.4634   54.2297   43.2379 H   0  0  0  0  0  0
   69.4000   56.1518   42.4915 H   0  0  0  0  0  0
   70.1204   56.4061   44.0992 H   0  0  0  0  0  0
   69.9730   57.7693   42.9642 H   0  0  0  0  0  0
   70.5941   55.9842   40.6160 H   0  0  0  0  0  0
   71.3581   57.5866   40.7459 H   0  0  0  0  0  0
   72.3669   56.1322   40.5584 H   0  0  0  0  0  0
  1  2  1  0  0  0
  1  7  2  0  0  0
  1 22  1  0  0  0
  2  3  2  0  0  0
  2 13  1  0  0  0
  3  4  1  0  0  0
  3 10  1  0  0  0
  4  5  1  0  0  0
  4 21  1  0  0  0
  5  6  2  0  0  0
  5  7  1  0  0  0
  7  8  1  0  0  0
  8  9  3  0  0  0
 10 11  1  0  0  0
 10 14  1  0  0  0
 10 23  1  0  0  0
 11 12  1  0  0  0
 11 15  1  0  0  0
 11 16  1  0  0  0
 12 13  1  0  0  0
 12 17  1  0  0  0
 12 18  1  0  0  0
 13 19  1  0  0  0
 13 20  1  0  0  0
 23 24  2  0  0  0
 23 28  1  0  0  0
 24 25  1  0  0  0
 24 32  1  0  0  0
 25 26  1  0  0  0
 25 33  1  0  0  0
 25 34  1  0  0  0
 26 27  1  0  0  0
 26 29  1  0  0  0
 26 35  1  0  0  0
 27 28  1  0  0  0
 27 36  1  0  0  0
 27 37  1  0  0  0
 28 29  1  0  0  0
 28 38  1  0  0  0
 29 30  1  0  0  0
 29 31  1  0  0  0
 30 39  1  0  0  0
 30 40  1  0  0  0
 30 41  1  0  0  0
 31 42  1  0  0  0
 31 43  1  0  0  0
 31 44  1  0  0  0
M  END
> <b_m_subgroup_collapsed>
0

> <s_m_subgroup_title>
enumerate_135-out

> <s_m_subgroupid>
enumerate_135-out

$$$$
