31007-1
                    3D
 Schrodinger Suite 2024-3.
 42 44  0  0  1  0            999 V2000
   76.7152   51.2564   42.5117 C   0  0  0  0  0  0
   75.6469   51.8672   41.7091 C   0  0  0  0  0  0
   74.7156   52.5958   42.3599 C   0  0  0  0  0  0
   74.7624   52.7581   43.7471 N   0  0  0  0  0  0
   75.7023   52.2182   44.5484 C   0  0  0  0  0  0
   75.6665   52.3767   45.7684 O   0  0  0  0  0  0
   76.7303   51.4438   43.8559 C   0  0  0  0  0  0
   77.7066   50.8711   44.7216 C   0  0  0  0  0  0
   78.4723   50.4247   45.4646 N   0  0  0  0  0  0
   73.5301   53.2752   41.6754 C   0  0  2  0  0  0
   73.5536   53.2080   40.1403 C   0  0  0  0  0  0
   74.1629   51.9154   39.6394 C   0  0  0  0  0  0
   75.5862   51.7783   40.1806 C   0  0  0  0  0  0
   72.6664   52.6907   41.9933 H   0  0  0  0  0  0
   72.5491   53.3463   39.7375 H   0  0  0  0  0  0
   74.1721   53.9906   39.7152 H   0  0  0  0  0  0
   73.5550   51.0645   39.9511 H   0  0  0  0  0  0
   74.1759   51.9052   38.5496 H   0  0  0  0  0  0
   76.2138   52.5768   39.7810 H   0  0  0  0  0  0
   75.9881   50.8598   39.7711 H   0  0  0  0  0  0
   74.0228   53.3179   44.1572 H   0  0  0  0  0  0
   78.2659   50.0552   41.5379 R   0  0  0  0  0  0
   72.4096   59.1862   42.3596 C   0  0  0  0  0  0
   73.2374   58.0723   41.7903 C   0  0  0  0  0  0
   72.3782   56.8575   41.6006 C   0  0  2  0  0  0
   71.8243   56.3733   42.9510 C   0  0  0  0  0  0
   72.0663   54.8622   42.9792 C   0  0  0  0  0  0
   73.3432   54.6822   42.1606 C   0  0  2  0  0  0
   73.1883   55.6879   41.0172 C   0  0  0  0  0  0
   73.0339   60.0690   42.4975 H   0  0  0  0  0  0
   71.5952   59.4206   41.6742 H   0  0  0  0  0  0
   71.9982   58.8784   43.3210 H   0  0  0  0  0  0
   74.0518   57.8379   42.4757 H   0  0  0  0  0  0
   73.6487   58.3801   40.8290 H   0  0  0  0  0  0
   71.5724   57.1416   40.9210 H   0  0  0  0  0  0
   70.7716   56.6269   43.0886 H   0  0  0  0  0  0
   72.3763   56.8471   43.7655 H   0  0  0  0  0  0
   71.2371   54.3410   42.4959 H   0  0  0  0  0  0
   72.1538   54.4670   43.9928 H   0  0  0  0  0  0
   74.2146   54.9367   42.7679 H   0  0  0  0  0  0
   74.1504   56.0046   40.6104 H   0  0  0  0  0  0
   72.6311   55.2273   40.1986 H   0  0  0  0  0  0
  1  2  1  0  0  0
  1  7  2  0  0  0
  1 22  1  0  0  0
  2  3  2  0  0  0
  2 13  1  0  0  0
  3  4  1  0  0  0
  3 10  1  0  0  0
  4  5  1  0  0  0
  4 21  1  0  0  0
  5  6  2  0  0  0
  5  7  1  0  0  0
  7  8  1  0  0  0
  8  9  3  0  0  0
 10 11  1  0  0  0
 10 14  1  0  0  0
 10 28  1  0  0  0
 11 12  1  0  0  0
 11 15  1  0  0  0
 11 16  1  0  0  0
 12 13  1  0  0  0
 12 17  1  0  0  0
 12 18  1  0  0  0
 13 19  1  0  0  0
 13 20  1  0  0  0
 23 24  1  0  0  0
 23 30  1  0  0  0
 23 31  1  0  0  0
 23 32  1  0  0  0
 24 25  1  0  0  0
 24 33  1  0  0  0
 24 34  1  0  0  0
 25 26  1  0  0  0
 25 29  1  0  0  0
 25 35  1  0  0  0
 26 27  1  0  0  0
 26 36  1  0  0  0
 26 37  1  0  0  0
 27 28  1  0  0  0
 27 38  1  0  0  0
 27 39  1  0  0  0
 28 29  1  0  0  0
 28 40  1  0  0  0
 29 41  1  0  0  0
 29 42  1  0  0  0
M  END
> <b_m_subgroup_collapsed>
0

> <s_m_subgroup_title>
enumerate_135-out

> <s_m_subgroupid>
enumerate_135-out

$$$$
