2315-1
                    3D
 Schrodinger Suite 2024-3.
 43 45  0  0  1  0            999 V2000
   76.7152   51.2564   42.5117 C   0  0  0  0  0  0
   75.6469   51.8672   41.7091 C   0  0  0  0  0  0
   74.7156   52.5958   42.3599 C   0  0  0  0  0  0
   74.7624   52.7581   43.7471 N   0  0  0  0  0  0
   75.7023   52.2182   44.5484 C   0  0  0  0  0  0
   75.6665   52.3767   45.7684 O   0  0  0  0  0  0
   76.7303   51.4438   43.8559 C   0  0  0  0  0  0
   77.7066   50.8711   44.7216 C   0  0  0  0  0  0
   78.4723   50.4247   45.4646 N   0  0  0  0  0  0
   73.5301   53.2752   41.6754 C   0  0  2  0  0  0
   73.5536   53.2080   40.1403 C   0  0  0  0  0  0
   74.1629   51.9154   39.6394 C   0  0  0  0  0  0
   75.5862   51.7783   40.1806 C   0  0  0  0  0  0
   72.6664   52.6907   41.9933 H   0  0  0  0  0  0
   72.5491   53.3463   39.7375 H   0  0  0  0  0  0
   74.1721   53.9906   39.7152 H   0  0  0  0  0  0
   73.5550   51.0645   39.9511 H   0  0  0  0  0  0
   74.1759   51.9052   38.5496 H   0  0  0  0  0  0
   76.2138   52.5768   39.7810 H   0  0  0  0  0  0
   75.9881   50.8598   39.7711 H   0  0  0  0  0  0
   74.0228   53.3179   44.1572 H   0  0  0  0  0  0
   78.2659   50.0552   41.5379 R   0  0  0  0  0  0
   75.6594   54.8957   42.2504 C   0  0  0  0  0  0
   74.4565   54.9735   42.9222 O   0  0  0  0  0  0
   73.3432   54.6822   42.1606 C   0  0  0  0  0  0
   73.2751   55.6497   40.9617 C   0  0  0  0  0  0
   72.9953   57.0980   41.4109 C   0  0  0  0  0  0
   71.7332   57.1897   42.2921 C   0  0  0  0  0  0
   71.8013   56.2223   43.4910 C   0  0  0  0  0  0
   72.0811   54.7739   43.0418 C   0  0  0  0  0  0
   76.4732   55.1415   42.9327 H   0  0  0  0  0  0
   75.7980   53.8839   41.8693 H   0  0  0  0  0  0
   75.6573   55.6002   41.4187 H   0  0  0  0  0  0
   74.2062   55.6076   40.3940 H   0  0  0  0  0  0
   72.4897   55.3241   40.2769 H   0  0  0  0  0  0
   73.8545   57.4778   41.9672 H   0  0  0  0  0  0
   72.8905   57.7462   40.5392 H   0  0  0  0  0  0
   71.5973   58.2134   42.6451 H   0  0  0  0  0  0
   70.8525   56.9593   41.6896 H   0  0  0  0  0  0
   72.5868   56.5478   44.1758 H   0  0  0  0  0  0
   70.8703   56.2643   44.0587 H   0  0  0  0  0  0
   71.2219   54.3942   42.4855 H   0  0  0  0  0  0
   72.1859   54.1257   43.9135 H   0  0  0  0  0  0
  1  2  1  0  0  0
  1  7  2  0  0  0
  1 22  1  0  0  0
  2  3  2  0  0  0
  2 13  1  0  0  0
  3  4  1  0  0  0
  3 10  1  0  0  0
  4  5  1  0  0  0
  4 21  1  0  0  0
  5  6  2  0  0  0
  5  7  1  0  0  0
  7  8  1  0  0  0
  8  9  3  0  0  0
 10 11  1  0  0  0
 10 14  1  0  0  0
 10 25  1  0  0  0
 11 12  1  0  0  0
 11 15  1  0  0  0
 11 16  1  0  0  0
 12 13  1  0  0  0
 12 17  1  0  0  0
 12 18  1  0  0  0
 13 19  1  0  0  0
 13 20  1  0  0  0
 23 24  1  0  0  0
 23 31  1  0  0  0
 23 32  1  0  0  0
 23 33  1  0  0  0
 24 25  1  0  0  0
 25 26  1  0  0  0
 25 30  1  0  0  0
 26 27  1  0  0  0
 26 34  1  0  0  0
 26 35  1  0  0  0
 27 28  1  0  0  0
 27 36  1  0  0  0
 27 37  1  0  0  0
 28 29  1  0  0  0
 28 38  1  0  0  0
 28 39  1  0  0  0
 29 30  1  0  0  0
 29 40  1  0  0  0
 29 41  1  0  0  0
 30 42  1  0  0  0
 30 43  1  0  0  0
M  END
> <b_m_subgroup_collapsed>
0

> <s_m_subgroup_title>
enumerate_135-out

> <s_m_subgroupid>
enumerate_135-out

$$$$
