37893-1
                    3D
 Schrodinger Suite 2024-3.
 43 45  0  0  1  0            999 V2000
   76.7152   51.2564   42.5117 C   0  0  0  0  0  0
   75.6469   51.8672   41.7091 C   0  0  0  0  0  0
   74.7156   52.5958   42.3599 C   0  0  0  0  0  0
   74.7624   52.7581   43.7471 N   0  0  0  0  0  0
   75.7023   52.2182   44.5484 C   0  0  0  0  0  0
   75.6665   52.3767   45.7684 O   0  0  0  0  0  0
   76.7303   51.4438   43.8559 C   0  0  0  0  0  0
   77.7066   50.8711   44.7216 C   0  0  0  0  0  0
   78.4723   50.4247   45.4646 N   0  0  0  0  0  0
   73.5301   53.2752   41.6754 C   0  0  2  0  0  0
   73.5536   53.2080   40.1403 C   0  0  0  0  0  0
   74.1629   51.9154   39.6394 C   0  0  0  0  0  0
   75.5862   51.7783   40.1806 C   0  0  0  0  0  0
   72.6664   52.6907   41.9933 H   0  0  0  0  0  0
   72.5491   53.3463   39.7375 H   0  0  0  0  0  0
   74.1721   53.9906   39.7152 H   0  0  0  0  0  0
   73.5550   51.0645   39.9511 H   0  0  0  0  0  0
   74.1759   51.9052   38.5496 H   0  0  0  0  0  0
   76.2138   52.5768   39.7810 H   0  0  0  0  0  0
   75.9881   50.8598   39.7711 H   0  0  0  0  0  0
   74.0228   53.3179   44.1572 H   0  0  0  0  0  0
   78.2659   50.0552   41.5379 R   0  0  0  0  0  0
   73.3432   54.6822   42.1606 C   0  0  0  0  0  0
   72.0434   55.2216   41.6415 C   0  0  0  0  0  0
   71.8565   56.6286   42.1266 C   0  0  2  0  0  0
   70.5946   56.6722   42.9364 C   0  0  0  0  0  0
   71.8098   57.6394   40.9872 C   0  0  0  0  0  0
   72.2639   58.9041   41.6786 C   0  0  0  0  0  0
   73.3807   58.3837   42.5751 C   0  0  0  0  0  0
   72.9527   57.0656   42.9399 O   0  0  0  0  0  0
   73.3314   54.6922   43.2504 H   0  0  0  0  0  0
   74.1638   55.3027   41.8004 H   0  0  0  0  0  0
   72.0552   55.2116   40.5516 H   0  0  0  0  0  0
   71.2228   54.6011   42.0017 H   0  0  0  0  0  0
   69.7572   56.3406   42.3223 H   0  0  0  0  0  0
   70.6943   56.0149   43.8002 H   0  0  0  0  0  0
   70.4152   57.6926   43.2750 H   0  0  0  0  0  0
   72.5096   57.3540   40.1986 H   0  0  0  0  0  0
   70.8182   57.7233   40.5395 H   0  0  0  0  0  0
   72.6047   59.6766   40.9873 H   0  0  0  0  0  0
   71.4590   59.3280   42.2832 H   0  0  0  0  0  0
   74.3231   58.3163   42.0277 H   0  0  0  0  0  0
   73.5458   59.0158   43.4491 H   0  0  0  0  0  0
  1  2  1  0  0  0
  1  7  2  0  0  0
  1 22  1  0  0  0
  2  3  2  0  0  0
  2 13  1  0  0  0
  3  4  1  0  0  0
  3 10  1  0  0  0
  4  5  1  0  0  0
  4 21  1  0  0  0
  5  6  2  0  0  0
  5  7  1  0  0  0
  7  8  1  0  0  0
  8  9  3  0  0  0
 10 11  1  0  0  0
 10 14  1  0  0  0
 10 23  1  0  0  0
 11 12  1  0  0  0
 11 15  1  0  0  0
 11 16  1  0  0  0
 12 13  1  0  0  0
 12 17  1  0  0  0
 12 18  1  0  0  0
 13 19  1  0  0  0
 13 20  1  0  0  0
 23 24  1  0  0  0
 23 31  1  0  0  0
 23 32  1  0  0  0
 24 25  1  0  0  0
 24 33  1  0  0  0
 24 34  1  0  0  0
 25 26  1  0  0  0
 25 27  1  0  0  0
 25 30  1  0  0  0
 26 35  1  0  0  0
 26 36  1  0  0  0
 26 37  1  0  0  0
 27 28  1  0  0  0
 27 38  1  0  0  0
 27 39  1  0  0  0
 28 29  1  0  0  0
 28 40  1  0  0  0
 28 41  1  0  0  0
 29 30  1  0  0  0
 29 42  1  0  0  0
 29 43  1  0  0  0
M  END
> <b_m_subgroup_collapsed>
0

> <s_m_subgroup_title>
enumerate_135-out

> <s_m_subgroupid>
enumerate_135-out

$$$$
