36329-1
                    3D
 Schrodinger Suite 2024-3.
 41 43  0  0  1  0            999 V2000
   76.7152   51.2564   42.5117 C   0  0  0  0  0  0
   75.6469   51.8672   41.7091 C   0  0  0  0  0  0
   74.7156   52.5958   42.3599 C   0  0  0  0  0  0
   74.7624   52.7581   43.7471 N   0  0  0  0  0  0
   75.7023   52.2182   44.5484 C   0  0  0  0  0  0
   75.6665   52.3767   45.7684 O   0  0  0  0  0  0
   76.7303   51.4438   43.8559 C   0  0  0  0  0  0
   77.7066   50.8711   44.7216 C   0  0  0  0  0  0
   78.4723   50.4247   45.4646 N   0  0  0  0  0  0
   73.5301   53.2752   41.6754 C   0  0  2  0  0  0
   73.5536   53.2080   40.1403 C   0  0  0  0  0  0
   74.1629   51.9154   39.6394 C   0  0  0  0  0  0
   75.5862   51.7783   40.1806 C   0  0  0  0  0  0
   72.6664   52.6907   41.9933 H   0  0  0  0  0  0
   72.5491   53.3463   39.7375 H   0  0  0  0  0  0
   74.1721   53.9906   39.7152 H   0  0  0  0  0  0
   73.5550   51.0645   39.9511 H   0  0  0  0  0  0
   74.1759   51.9052   38.5496 H   0  0  0  0  0  0
   76.2138   52.5768   39.7810 H   0  0  0  0  0  0
   75.9881   50.8598   39.7711 H   0  0  0  0  0  0
   74.0228   53.3179   44.1572 H   0  0  0  0  0  0
   78.2659   50.0552   41.5379 R   0  0  0  0  0  0
   73.3432   54.6822   42.1606 C   0  0  0  0  0  0
   74.2488   55.4758   42.3994 O   0  0  0  0  0  0
   72.0540   54.9884   42.3091 N   0  0  0  0  0  0
   71.5351   56.2748   42.7646 C   0  0  1  0  0  0
   70.1992   56.5688   42.0914 C   0  0  0  0  0  0
   69.1180   57.0484   42.7367 C   0  0  0  0  0  0
   69.0909   57.3880   44.2228 C   0  0  0  0  0  0
   70.5211   57.4359   44.8102 C   0  0  0  0  0  0
   71.3949   56.2717   44.3050 C   0  0  0  0  0  0
   72.2594   57.0274   42.4487 H   0  0  0  0  0  0
   70.1058   56.3749   41.0304 H   0  0  0  0  0  0
   68.2171   57.2077   42.1577 H   0  0  0  0  0  0
   68.5917   58.3456   44.3795 H   0  0  0  0  0  0
   68.4899   56.6396   44.7420 H   0  0  0  0  0  0
   70.9945   58.3806   44.5356 H   0  0  0  0  0  0
   70.4742   57.4299   45.9004 H   0  0  0  0  0  0
   70.9501   55.3280   44.6269 H   0  0  0  0  0  0
   72.3828   56.3105   44.7671 H   0  0  0  0  0  0
   71.2788   54.3678   42.1246 H   0  0  0  0  0  0
  1  2  1  0  0  0
  1  7  2  0  0  0
  1 22  1  0  0  0
  2  3  2  0  0  0
  2 13  1  0  0  0
  3  4  1  0  0  0
  3 10  1  0  0  0
  4  5  1  0  0  0
  4 21  1  0  0  0
  5  6  2  0  0  0
  5  7  1  0  0  0
  7  8  1  0  0  0
  8  9  3  0  0  0
 10 11  1  0  0  0
 10 14  1  0  0  0
 10 23  1  0  0  0
 11 12  1  0  0  0
 11 15  1  0  0  0
 11 16  1  0  0  0
 12 13  1  0  0  0
 12 17  1  0  0  0
 12 18  1  0  0  0
 13 19  1  0  0  0
 13 20  1  0  0  0
 23 24  2  0  0  0
 23 25  1  0  0  0
 25 26  1  0  0  0
 25 41  1  0  0  0
 26 27  1  0  0  0
 26 31  1  0  0  0
 26 32  1  0  0  0
 27 28  2  0  0  0
 27 33  1  0  0  0
 28 29  1  0  0  0
 28 34  1  0  0  0
 29 30  1  0  0  0
 29 35  1  0  0  0
 29 36  1  0  0  0
 30 31  1  0  0  0
 30 37  1  0  0  0
 30 38  1  0  0  0
 31 39  1  0  0  0
 31 40  1  0  0  0
M  END
> <b_m_subgroup_collapsed>
0

> <s_m_subgroup_title>
enumerate_136-out

> <s_m_subgroupid>
enumerate_136-out

$$$$
