41329-3
                    3D
 Schrodinger Suite 2024-3.
 45 47  0  0  1  0            999 V2000
   76.7152   51.2564   42.5117 C   0  0  0  0  0  0
   75.6469   51.8672   41.7091 C   0  0  0  0  0  0
   74.7156   52.5958   42.3599 C   0  0  0  0  0  0
   74.7624   52.7581   43.7471 N   0  0  0  0  0  0
   75.7023   52.2182   44.5484 C   0  0  0  0  0  0
   75.6665   52.3767   45.7684 O   0  0  0  0  0  0
   76.7303   51.4438   43.8559 C   0  0  0  0  0  0
   77.7066   50.8711   44.7216 C   0  0  0  0  0  0
   78.4723   50.4247   45.4646 N   0  0  0  0  0  0
   73.5301   53.2752   41.6754 C   0  0  2  0  0  0
   73.5536   53.2080   40.1403 C   0  0  0  0  0  0
   74.1629   51.9154   39.6394 C   0  0  0  0  0  0
   75.5862   51.7783   40.1806 C   0  0  0  0  0  0
   72.6664   52.6907   41.9933 H   0  0  0  0  0  0
   72.5491   53.3463   39.7375 H   0  0  0  0  0  0
   74.1721   53.9906   39.7152 H   0  0  0  0  0  0
   73.5550   51.0645   39.9511 H   0  0  0  0  0  0
   74.1759   51.9052   38.5496 H   0  0  0  0  0  0
   76.2138   52.5768   39.7810 H   0  0  0  0  0  0
   75.9881   50.8598   39.7711 H   0  0  0  0  0  0
   74.0228   53.3179   44.1572 H   0  0  0  0  0  0
   78.2659   50.0552   41.5379 R   0  0  0  0  0  0
   73.3432   54.6822   42.1606 C   0  0  1  0  0  0
   73.0622   55.6656   41.0259 C   0  0  0  0  0  0
   72.1197   56.6950   41.6395 C   0  0  2  0  0  0
   70.9101   56.6977   40.9750 O   0  0  0  0  0  0
   72.6660   58.0909   41.5854 C   0  0  0  0  0  0
   72.8394   58.4663   40.2688 O   0  0  0  0  0  0
   71.9295   56.2262   43.0808 C   0  0  0  0  0  0
   70.5575   56.5217   43.6103 C   0  0  0  0  0  0
   72.9314   56.8460   44.0093 C   0  0  0  0  0  0
   72.1635   54.8261   42.9481 O   0  0  0  0  0  0
   74.2288   54.9639   42.7358 H   0  0  0  0  0  0
   73.9842   56.1084   40.6452 H   0  0  0  0  0  0
   72.5770   55.1526   40.1933 H   0  0  0  0  0  0
   71.9671   58.7736   42.0687 H   0  0  0  0  0  0
   73.6248   58.1262   42.1026 H   0  0  0  0  0  0
   70.4250   57.6003   43.6945 H   0  0  0  0  0  0
   69.8099   56.1158   42.9289 H   0  0  0  0  0  0
   70.4407   56.0636   44.5925 H   0  0  0  0  0  0
   72.7342   57.9145   44.0959 H   0  0  0  0  0  0
   72.8523   56.3811   44.9920 H   0  0  0  0  0  0
   73.9359   56.6928   43.6146 H   0  0  0  0  0  0
   70.8415   56.0461   40.2196 H   0  0  0  0  0  0
   73.2024   59.3887   40.1366 H   0  0  0  0  0  0
  1  2  1  0  0  0
  1  7  2  0  0  0
  1 22  1  0  0  0
  2  3  2  0  0  0
  2 13  1  0  0  0
  3  4  1  0  0  0
  3 10  1  0  0  0
  4  5  1  0  0  0
  4 21  1  0  0  0
  5  6  2  0  0  0
  5  7  1  0  0  0
  7  8  1  0  0  0
  8  9  3  0  0  0
 10 11  1  0  0  0
 10 14  1  0  0  0
 10 23  1  0  0  0
 11 12  1  0  0  0
 11 15  1  0  0  0
 11 16  1  0  0  0
 12 13  1  0  0  0
 12 17  1  0  0  0
 12 18  1  0  0  0
 13 19  1  0  0  0
 13 20  1  0  0  0
 23 24  1  0  0  0
 23 32  1  0  0  0
 23 33  1  0  0  0
 24 25  1  0  0  0
 24 34  1  0  0  0
 24 35  1  0  0  0
 25 26  1  0  0  0
 25 27  1  0  0  0
 25 29  1  0  0  0
 26 44  1  0  0  0
 27 28  1  0  0  0
 27 36  1  0  0  0
 27 37  1  0  0  0
 28 45  1  0  0  0
 29 30  1  0  0  0
 29 31  1  0  0  0
 29 32  1  0  0  0
 30 38  1  0  0  0
 30 39  1  0  0  0
 30 40  1  0  0  0
 31 41  1  0  0  0
 31 42  1  0  0  0
 31 43  1  0  0  0
M  END
> <b_m_subgroup_collapsed>
0

> <s_m_subgroup_title>
enumerate_136-out

> <s_m_subgroupid>
enumerate_136-out

$$$$
