2683-2
                    3D
 Schrodinger Suite 2024-3.
 42 44  0  0  1  0            999 V2000
   76.7152   51.2564   42.5117 C   0  0  0  0  0  0
   75.6469   51.8672   41.7091 C   0  0  0  0  0  0
   74.7156   52.5958   42.3599 C   0  0  0  0  0  0
   74.7624   52.7581   43.7471 N   0  0  0  0  0  0
   75.7023   52.2182   44.5484 C   0  0  0  0  0  0
   75.6665   52.3767   45.7684 O   0  0  0  0  0  0
   76.7303   51.4438   43.8559 C   0  0  0  0  0  0
   77.7066   50.8711   44.7216 C   0  0  0  0  0  0
   78.4723   50.4247   45.4646 N   0  0  0  0  0  0
   73.5301   53.2752   41.6754 C   0  0  2  0  0  0
   73.5536   53.2080   40.1403 N   0  0  0  0  0  0
   74.1629   51.9154   39.6394 C   0  0  0  0  0  0
   75.5862   51.7783   40.1806 C   0  0  0  0  0  0
   72.6664   52.6907   41.9933 H   0  0  0  0  0  0
   74.0228   53.3179   44.1572 H   0  0  0  0  0  0
   78.2659   50.0552   41.5379 R   0  0  0  0  0  0
   73.5564   51.0654   39.9852 H   0  0  0  0  0  0
   74.1880   51.9241   38.5497 H   0  0  0  0  0  0
   76.5095   51.6308   39.6012 H   0  0  0  0  0  0
   75.7161   52.8584   40.1126 H   0  0  0  0  0  0
   72.6100   53.2702   39.7856 H   0  0  0  0  0  0
   72.0785   58.3348   44.2356 C   0  0  0  0  0  0
   72.6802   56.9965   43.9246 C   0  0  0  0  0  0
   73.8558   56.6899   44.1442 O   0  0  0  0  0  0
   71.7843   56.1570   43.3728 N   0  0  0  0  0  0
   70.3945   56.5487   43.1259 C   0  0  0  0  0  0
   69.7299   55.2168   42.7822 C   0  0  0  0  0  0
   70.8486   54.3846   42.1699 C   0  0  0  0  0  0
   72.0917   54.7822   42.9638 C   0  0  1  0  0  0
   73.3463   54.6872   42.1472 C   0  0  0  0  0  0
   71.0286   58.3381   43.9426 H   0  0  0  0  0  0
   72.1578   58.5291   45.3052 H   0  0  0  0  0  0
   72.6118   59.1098   43.6850 H   0  0  0  0  0  0
   70.3468   57.2340   42.2767 H   0  0  0  0  0  0
   69.9274   57.0328   43.9868 H   0  0  0  0  0  0
   68.8756   55.3359   42.1138 H   0  0  0  0  0  0
   69.3656   54.7398   43.6946 H   0  0  0  0  0  0
   70.9813   54.6514   41.1193 H   0  0  0  0  0  0
   70.6513   53.3123   42.2114 H   0  0  0  0  0  0
   72.2077   54.1513   43.8476 H   0  0  0  0  0  0
   74.2003   54.9803   42.7578 H   0  0  0  0  0  0
   73.2705   55.3510   41.2860 H   0  0  0  0  0  0
  1  2  1  0  0  0
  1  7  2  0  0  0
  1 16  1  0  0  0
  2  3  2  0  0  0
  2 13  1  0  0  0
  3  4  1  0  0  0
  3 10  1  0  0  0
  4  5  1  0  0  0
  4 15  1  0  0  0
  5  6  2  0  0  0
  5  7  1  0  0  0
  7  8  1  0  0  0
  8  9  3  0  0  0
 10 11  1  0  0  0
 10 14  1  0  0  0
 10 30  1  0  0  0
 11 12  1  0  0  0
 11 21  1  0  0  0
 12 13  1  0  0  0
 12 17  1  0  0  0
 12 18  1  0  0  0
 13 19  1  0  0  0
 13 20  1  0  0  0
 22 23  1  0  0  0
 22 31  1  0  0  0
 22 32  1  0  0  0
 22 33  1  0  0  0
 23 24  2  0  0  0
 23 25  1  0  0  0
 25 26  1  0  0  0
 25 29  1  0  0  0
 26 27  1  0  0  0
 26 34  1  0  0  0
 26 35  1  0  0  0
 27 28  1  0  0  0
 27 36  1  0  0  0
 27 37  1  0  0  0
 28 29  1  0  0  0
 28 38  1  0  0  0
 28 39  1  0  0  0
 29 30  1  0  0  0
 29 40  1  0  0  0
 30 41  1  0  0  0
 30 42  1  0  0  0
M  END
> <b_m_subgroup_collapsed>
1

> <s_m_subgroup_title>
enumerate_141-out

> <s_m_subgroupid>
enumerate_141-out

$$$$
