10387-2
                    3D
 Schrodinger Suite 2024-3.
 43 46  0  0  1  0            999 V2000
   76.7152   51.2564   42.5117 C   0  0  0  0  0  0
   75.6469   51.8672   41.7091 C   0  0  0  0  0  0
   74.7156   52.5958   42.3599 C   0  0  0  0  0  0
   74.7624   52.7581   43.7471 N   0  0  0  0  0  0
   75.7023   52.2182   44.5484 C   0  0  0  0  0  0
   75.6665   52.3767   45.7684 O   0  0  0  0  0  0
   76.7303   51.4438   43.8559 C   0  0  0  0  0  0
   77.7066   50.8711   44.7216 C   0  0  0  0  0  0
   78.4723   50.4247   45.4646 N   0  0  0  0  0  0
   73.5301   53.2752   41.6754 C   0  0  2  0  0  0
   73.5536   53.2080   40.1403 N   0  0  0  0  0  0
   74.1629   51.9154   39.6394 C   0  0  0  0  0  0
   75.5862   51.7783   40.1806 C   0  0  0  0  0  0
   72.6664   52.6907   41.9933 H   0  0  0  0  0  0
   74.0228   53.3179   44.1572 H   0  0  0  0  0  0
   78.2659   50.0552   41.5379 R   0  0  0  0  0  0
   73.5564   51.0654   39.9852 H   0  0  0  0  0  0
   74.1880   51.9241   38.5497 H   0  0  0  0  0  0
   76.5095   51.6308   39.6012 H   0  0  0  0  0  0
   75.7161   52.8584   40.1126 H   0  0  0  0  0  0
   72.6100   53.2702   39.7856 H   0  0  0  0  0  0
   73.3463   54.6872   42.1472 C   0  0  0  0  0  0
   74.2402   55.6428   41.8232 C   0  0  0  0  0  0
   74.0177   57.0744   42.3244 C   0  0  0  0  0  0
   72.6967   57.1192   43.1701 C   0  0  2  0  0  0
   72.6183   55.9572   44.1953 C   0  0  0  0  0  0
   72.1379   55.0813   43.0099 C   0  0  1  0  0  0
   71.5226   56.3941   42.4609 C   0  0  0  0  0  0
   70.1668   56.7203   43.0136 C   0  0  0  0  0  0
   71.4640   56.5304   40.9683 C   0  0  0  0  0  0
   75.1019   55.3957   41.2165 H   0  0  0  0  0  0
   74.8698   57.3946   42.9260 H   0  0  0  0  0  0
   73.9547   57.7595   41.4775 H   0  0  0  0  0  0
   72.5047   58.1267   43.5452 H   0  0  0  0  0  0
   73.5593   55.6642   44.6658 H   0  0  0  0  0  0
   71.8731   56.0981   44.9829 H   0  0  0  0  0  0
   71.4639   54.2496   43.2262 H   0  0  0  0  0  0
   69.4065   56.1701   42.4592 H   0  0  0  0  0  0
   70.1255   56.4375   44.0654 H   0  0  0  0  0  0
   69.9833   57.7904   42.9176 H   0  0  0  0  0  0
   70.6026   55.9819   40.5870 H   0  0  0  0  0  0
   71.3707   57.5835   40.7030 H   0  0  0  0  0  0
   72.3760   56.1247   40.5303 H   0  0  0  0  0  0
  1  2  1  0  0  0
  1  7  2  0  0  0
  1 16  1  0  0  0
  2  3  2  0  0  0
  2 13  1  0  0  0
  3  4  1  0  0  0
  3 10  1  0  0  0
  4  5  1  0  0  0
  4 15  1  0  0  0
  5  6  2  0  0  0
  5  7  1  0  0  0
  7  8  1  0  0  0
  8  9  3  0  0  0
 10 11  1  0  0  0
 10 14  1  0  0  0
 10 22  1  0  0  0
 11 12  1  0  0  0
 11 21  1  0  0  0
 12 13  1  0  0  0
 12 17  1  0  0  0
 12 18  1  0  0  0
 13 19  1  0  0  0
 13 20  1  0  0  0
 22 23  2  0  0  0
 22 27  1  0  0  0
 23 24  1  0  0  0
 23 31  1  0  0  0
 24 25  1  0  0  0
 24 32  1  0  0  0
 24 33  1  0  0  0
 25 26  1  0  0  0
 25 28  1  0  0  0
 25 34  1  0  0  0
 26 27  1  0  0  0
 26 35  1  0  0  0
 26 36  1  0  0  0
 27 28  1  0  0  0
 27 37  1  0  0  0
 28 29  1  0  0  0
 28 30  1  0  0  0
 29 38  1  0  0  0
 29 39  1  0  0  0
 29 40  1  0  0  0
 30 41  1  0  0  0
 30 42  1  0  0  0
 30 43  1  0  0  0
M  END
> <b_m_subgroup_collapsed>
1

> <s_m_subgroup_title>
enumerate_141-out

> <s_m_subgroupid>
enumerate_141-out

$$$$
