11111-1
                    3D
 Schrodinger Suite 2024-3.
 36 38  0  0  1  0            999 V2000
   76.7152   51.2564   42.5117 C   0  0  0  0  0  0
   75.6469   51.8672   41.7091 C   0  0  0  0  0  0
   74.7156   52.5958   42.3599 C   0  0  0  0  0  0
   74.7624   52.7581   43.7471 N   0  0  0  0  0  0
   75.7023   52.2182   44.5484 C   0  0  0  0  0  0
   75.6665   52.3767   45.7684 O   0  0  0  0  0  0
   76.7303   51.4438   43.8559 C   0  0  0  0  0  0
   77.7066   50.8711   44.7216 C   0  0  0  0  0  0
   78.4723   50.4247   45.4646 N   0  0  0  0  0  0
   73.5301   53.2752   41.6754 C   0  0  2  0  0  0
   73.5536   53.2080   40.1403 N   0  0  0  0  0  0
   74.1629   51.9154   39.6394 C   0  0  0  0  0  0
   75.5862   51.7783   40.1806 C   0  0  0  0  0  0
   72.6664   52.6907   41.9933 H   0  0  0  0  0  0
   74.0228   53.3179   44.1572 H   0  0  0  0  0  0
   78.2659   50.0552   41.5379 R   0  0  0  0  0  0
   73.5564   51.0654   39.9852 H   0  0  0  0  0  0
   74.1880   51.9241   38.5497 H   0  0  0  0  0  0
   76.5095   51.6308   39.6012 H   0  0  0  0  0  0
   75.7161   52.8584   40.1126 H   0  0  0  0  0  0
   72.6100   53.2702   39.7856 H   0  0  0  0  0  0
   73.3610   54.5742   42.1095 O   0  0  0  0  0  0
   72.2342   54.7910   42.8760 C   0  0  0  0  0  0
   71.2700   53.8486   43.2478 C   0  0  0  0  0  0
   70.3182   54.3806   43.9831 N   0  0  0  0  0  0
   70.6543   55.6767   44.0973 N   0  0  0  0  0  0
   69.8526   56.6399   44.8464 C   0  0  0  0  0  0
   71.8166   55.9827   43.4400 C   0  0  0  0  0  0
   72.3768   57.3742   43.4366 C   0  0  0  0  0  0
   71.2733   52.7977   42.9809 H   0  0  0  0  0  0
   70.3236   57.6216   44.7961 H   0  0  0  0  0  0
   68.8530   56.6940   44.4152 H   0  0  0  0  0  0
   69.7828   56.3232   45.8870 H   0  0  0  0  0  0
   73.3002   57.3927   42.8578 H   0  0  0  0  0  0
   71.6536   58.0558   42.9889 H   0  0  0  0  0  0
   72.5835   57.6851   44.4607 H   0  0  0  0  0  0
  1  2  1  0  0  0
  1  7  2  0  0  0
  1 16  1  0  0  0
  2  3  2  0  0  0
  2 13  1  0  0  0
  3  4  1  0  0  0
  3 10  1  0  0  0
  4  5  1  0  0  0
  4 15  1  0  0  0
  5  6  2  0  0  0
  5  7  1  0  0  0
  7  8  1  0  0  0
  8  9  3  0  0  0
 10 11  1  0  0  0
 10 14  1  0  0  0
 10 22  1  0  0  0
 11 12  1  0  0  0
 11 21  1  0  0  0
 12 13  1  0  0  0
 12 17  1  0  0  0
 12 18  1  0  0  0
 13 19  1  0  0  0
 13 20  1  0  0  0
 22 23  1  0  0  0
 23 24  1  0  0  0
 23 28  2  0  0  0
 24 25  2  0  0  0
 24 30  1  0  0  0
 25 26  1  0  0  0
 26 27  1  0  0  0
 26 28  1  0  0  0
 27 31  1  0  0  0
 27 32  1  0  0  0
 27 33  1  0  0  0
 28 29  1  0  0  0
 29 34  1  0  0  0
 29 35  1  0  0  0
 29 36  1  0  0  0
M  END
> <b_m_subgroup_collapsed>
1

> <s_m_subgroup_title>
enumerate_141-out

> <s_m_subgroupid>
enumerate_141-out

$$$$
