10117-1
                    3D
 Schrodinger Suite 2024-3.
 43 46  0  0  1  0            999 V2000
   76.7152   51.2564   42.5117 C   0  0  0  0  0  0
   75.6469   51.8672   41.7091 C   0  0  0  0  0  0
   74.7156   52.5958   42.3599 C   0  0  0  0  0  0
   74.7624   52.7581   43.7471 N   0  0  0  0  0  0
   75.7023   52.2182   44.5484 C   0  0  0  0  0  0
   75.6665   52.3767   45.7684 O   0  0  0  0  0  0
   76.7303   51.4438   43.8559 C   0  0  0  0  0  0
   77.7066   50.8711   44.7216 C   0  0  0  0  0  0
   78.4723   50.4247   45.4646 N   0  0  0  0  0  0
   73.5301   53.2752   41.6754 C   0  0  2  0  0  0
   73.5536   53.2080   40.1403 N   0  0  0  0  0  0
   74.1629   51.9154   39.6394 C   0  0  0  0  0  0
   75.5862   51.7783   40.1806 C   0  0  0  0  0  0
   72.6664   52.6907   41.9933 H   0  0  0  0  0  0
   74.0228   53.3179   44.1572 H   0  0  0  0  0  0
   78.2659   50.0552   41.5379 R   0  0  0  0  0  0
   73.5564   51.0654   39.9852 H   0  0  0  0  0  0
   74.1880   51.9241   38.5497 H   0  0  0  0  0  0
   76.5095   51.6308   39.6012 H   0  0  0  0  0  0
   75.7161   52.8584   40.1126 H   0  0  0  0  0  0
   72.6100   53.2702   39.7856 H   0  0  0  0  0  0
   73.3463   54.6872   42.1472 C   0  0  2  0  0  0
   72.0208   54.8322   42.9195 C   0  0  0  0  0  0
   71.2422   55.8525   42.0687 C   0  0  1  0  0  0
   69.7625   55.8387   42.3142 C   0  0  0  0  0  0
   69.5132   56.1336   43.6391 O   0  0  0  0  0  0
   71.8840   57.2428   42.2315 C   0  0  0  0  0  0
   73.2090   57.0978   41.4582 C   0  0  0  0  0  0
   73.1516   55.6433   40.9560 C   0  0  2  0  0  0
   71.6670   55.4729   40.6548 C   0  0  0  0  0  0
   74.2136   54.9514   42.7536 H   0  0  0  0  0  0
   71.4942   53.8777   42.9609 H   0  0  0  0  0  0
   72.1703   55.1749   43.9442 H   0  0  0  0  0  0
   69.2820   56.5833   41.6796 H   0  0  0  0  0  0
   69.3647   54.8511   42.0807 H   0  0  0  0  0  0
   72.0388   57.5080   43.2782 H   0  0  0  0  0  0
   71.2592   58.0152   41.7808 H   0  0  0  0  0  0
   74.0812   57.2859   42.0857 H   0  0  0  0  0  0
   73.2435   57.7971   40.6216 H   0  0  0  0  0  0
   73.8201   55.4419   40.1179 H   0  0  0  0  0  0
   71.2975   56.1602   39.8914 H   0  0  0  0  0  0
   71.3946   54.4524   40.3791 H   0  0  0  0  0  0
   68.5465   56.1466   43.8945 H   0  0  0  0  0  0
  1  2  1  0  0  0
  1  7  2  0  0  0
  1 16  1  0  0  0
  2  3  2  0  0  0
  2 13  1  0  0  0
  3  4  1  0  0  0
  3 10  1  0  0  0
  4  5  1  0  0  0
  4 15  1  0  0  0
  5  6  2  0  0  0
  5  7  1  0  0  0
  7  8  1  0  0  0
  8  9  3  0  0  0
 10 11  1  0  0  0
 10 14  1  0  0  0
 10 22  1  0  0  0
 11 12  1  0  0  0
 11 21  1  0  0  0
 12 13  1  0  0  0
 12 17  1  0  0  0
 12 18  1  0  0  0
 13 19  1  0  0  0
 13 20  1  0  0  0
 22 23  1  0  0  0
 22 29  1  0  0  0
 22 31  1  0  0  0
 23 24  1  0  0  0
 23 32  1  0  0  0
 23 33  1  0  0  0
 24 25  1  0  0  0
 24 27  1  0  0  0
 24 30  1  0  0  0
 25 26  1  0  0  0
 25 34  1  0  0  0
 25 35  1  0  0  0
 26 43  1  0  0  0
 27 28  1  0  0  0
 27 36  1  0  0  0
 27 37  1  0  0  0
 28 29  1  0  0  0
 28 38  1  0  0  0
 28 39  1  0  0  0
 29 30  1  0  0  0
 29 40  1  0  0  0
 30 41  1  0  0  0
 30 42  1  0  0  0
M  END
> <b_m_subgroup_collapsed>
1

> <s_m_subgroup_title>
enumerate_142-out

> <s_m_subgroupid>
enumerate_142-out

$$$$
