16174-1
                    3D
 Schrodinger Suite 2024-3.
 37 39  0  0  1  0            999 V2000
   76.7152   51.2564   42.5117 C   0  0  0  0  0  0
   75.6469   51.8672   41.7091 C   0  0  0  0  0  0
   74.7156   52.5958   42.3599 C   0  0  0  0  0  0
   74.7624   52.7581   43.7471 N   0  0  0  0  0  0
   75.7023   52.2182   44.5484 C   0  0  0  0  0  0
   75.6665   52.3767   45.7684 O   0  0  0  0  0  0
   76.7303   51.4438   43.8559 C   0  0  0  0  0  0
   77.7066   50.8711   44.7216 C   0  0  0  0  0  0
   78.4723   50.4247   45.4646 N   0  0  0  0  0  0
   73.5301   53.2752   41.6754 C   0  0  2  0  0  0
   73.5536   53.2080   40.1403 N   0  0  0  0  0  0
   74.1629   51.9154   39.6394 C   0  0  0  0  0  0
   75.5862   51.7783   40.1806 C   0  0  0  0  0  0
   72.6664   52.6907   41.9933 H   0  0  0  0  0  0
   74.0228   53.3179   44.1572 H   0  0  0  0  0  0
   78.2659   50.0552   41.5379 R   0  0  0  0  0  0
   73.5564   51.0654   39.9852 H   0  0  0  0  0  0
   74.1880   51.9241   38.5497 H   0  0  0  0  0  0
   76.5095   51.6308   39.6012 H   0  0  0  0  0  0
   75.7161   52.8584   40.1126 H   0  0  0  0  0  0
   72.6100   53.2702   39.7856 H   0  0  0  0  0  0
   73.3610   54.5742   42.1095 O   0  0  0  0  0  0
   74.3450   55.4554   41.7098 C   0  0  0  0  0  0
   74.0401   56.8224   42.2468 C   0  0  0  0  0  0
   73.9780   56.8425   43.7453 C   0  0  0  0  0  0
   75.2989   56.4059   44.3064 C   0  0  0  0  0  0
   76.3061   56.0731   44.7684 N   0  0  0  0  0  0
   73.1104   57.7231   41.4654 C   0  0  0  0  0  0
   74.5897   58.0305   41.5226 C   0  0  0  0  0  0
   74.3794   55.4921   40.6209 H   0  0  0  0  0  0
   75.3093   55.1213   42.0927 H   0  0  0  0  0  0
   73.1964   56.1633   44.0857 H   0  0  0  0  0  0
   73.7548   57.8534   44.0862 H   0  0  0  0  0  0
   72.6839   57.3560   40.5295 H   0  0  0  0  0  0
   72.4167   58.3659   42.0115 H   0  0  0  0  0  0
   74.9278   58.8879   42.1085 H   0  0  0  0  0  0
   75.1950   57.8780   40.6265 H   0  0  0  0  0  0
  1  2  1  0  0  0
  1  7  2  0  0  0
  1 16  1  0  0  0
  2  3  2  0  0  0
  2 13  1  0  0  0
  3  4  1  0  0  0
  3 10  1  0  0  0
  4  5  1  0  0  0
  4 15  1  0  0  0
  5  6  2  0  0  0
  5  7  1  0  0  0
  7  8  1  0  0  0
  8  9  3  0  0  0
 10 11  1  0  0  0
 10 14  1  0  0  0
 10 22  1  0  0  0
 11 12  1  0  0  0
 11 21  1  0  0  0
 12 13  1  0  0  0
 12 17  1  0  0  0
 12 18  1  0  0  0
 13 19  1  0  0  0
 13 20  1  0  0  0
 22 23  1  0  0  0
 23 24  1  0  0  0
 23 30  1  0  0  0
 23 31  1  0  0  0
 24 25  1  0  0  0
 24 28  1  0  0  0
 24 29  1  0  0  0
 25 26  1  0  0  0
 25 32  1  0  0  0
 25 33  1  0  0  0
 26 27  3  0  0  0
 28 29  1  0  0  0
 28 34  1  0  0  0
 28 35  1  0  0  0
 29 36  1  0  0  0
 29 37  1  0  0  0
M  END
> <b_m_subgroup_collapsed>
1

> <s_m_subgroup_title>
enumerate_142-out

> <s_m_subgroupid>
enumerate_142-out

$$$$
