4799-1
                    3D
 Schrodinger Suite 2024-3.
 42 44  0  0  1  0            999 V2000
   76.7152   51.2564   42.5117 C   0  0  0  0  0  0
   75.6469   51.8672   41.7091 C   0  0  0  0  0  0
   74.7156   52.5958   42.3599 C   0  0  0  0  0  0
   74.7624   52.7581   43.7471 N   0  0  0  0  0  0
   75.7023   52.2182   44.5484 C   0  0  0  0  0  0
   75.6665   52.3767   45.7684 O   0  0  0  0  0  0
   76.7303   51.4438   43.8559 C   0  0  0  0  0  0
   77.7066   50.8711   44.7216 C   0  0  0  0  0  0
   78.4723   50.4247   45.4646 N   0  0  0  0  0  0
   73.5301   53.2752   41.6754 C   0  0  2  0  0  0
   73.5536   53.2080   40.1403 N   0  0  0  0  0  0
   74.1629   51.9154   39.6394 C   0  0  0  0  0  0
   75.5862   51.7783   40.1806 C   0  0  0  0  0  0
   72.6664   52.6907   41.9933 H   0  0  0  0  0  0
   74.0228   53.3179   44.1572 H   0  0  0  0  0  0
   78.2659   50.0552   41.5379 R   0  0  0  0  0  0
   73.5564   51.0654   39.9852 H   0  0  0  0  0  0
   74.1880   51.9241   38.5497 H   0  0  0  0  0  0
   76.5095   51.6308   39.6012 H   0  0  0  0  0  0
   75.7161   52.8584   40.1126 H   0  0  0  0  0  0
   72.6100   53.2702   39.7856 H   0  0  0  0  0  0
   73.3610   54.5742   42.1095 O   0  0  0  0  0  0
   74.3450   55.4554   41.7098 C   0  0  0  0  0  0
   74.0401   56.8224   42.2468 C   0  0  0  0  0  0
   73.9440   56.7763   43.7851 C   0  0  0  0  0  0
   73.7185   58.1783   44.3862 C   0  0  0  0  0  0
   74.7866   59.1833   43.9098 C   0  0  0  0  0  0
   74.8827   59.2294   42.3715 C   0  0  0  0  0  0
   75.1082   57.8274   41.7704 C   0  0  0  0  0  0
   75.3093   55.1213   42.0927 H   0  0  0  0  0  0
   74.3794   55.4921   40.6209 H   0  0  0  0  0  0
   73.0697   57.1000   41.8308 H   0  0  0  0  0  0
   73.1391   56.1052   44.0895 H   0  0  0  0  0  0
   74.8624   56.3500   44.1933 H   0  0  0  0  0  0
   72.7282   58.5397   44.1024 H   0  0  0  0  0  0
   73.7178   58.1221   45.4761 H   0  0  0  0  0  0
   74.5648   60.1779   44.3005 H   0  0  0  0  0  0
   75.7571   58.9057   44.3258 H   0  0  0  0  0  0
   73.9644   59.6557   41.9632 H   0  0  0  0  0  0
   75.6877   59.9005   42.0671 H   0  0  0  0  0  0
   76.0986   57.4660   42.0541 H   0  0  0  0  0  0
   75.1090   57.8836   40.6805 H   0  0  0  0  0  0
  1  2  1  0  0  0
  1  7  2  0  0  0
  1 16  1  0  0  0
  2  3  2  0  0  0
  2 13  1  0  0  0
  3  4  1  0  0  0
  3 10  1  0  0  0
  4  5  1  0  0  0
  4 15  1  0  0  0
  5  6  2  0  0  0
  5  7  1  0  0  0
  7  8  1  0  0  0
  8  9  3  0  0  0
 10 11  1  0  0  0
 10 14  1  0  0  0
 10 22  1  0  0  0
 11 12  1  0  0  0
 11 21  1  0  0  0
 12 13  1  0  0  0
 12 17  1  0  0  0
 12 18  1  0  0  0
 13 19  1  0  0  0
 13 20  1  0  0  0
 22 23  1  0  0  0
 23 24  1  0  0  0
 23 30  1  0  0  0
 23 31  1  0  0  0
 24 25  1  0  0  0
 24 29  1  0  0  0
 24 32  1  0  0  0
 25 26  1  0  0  0
 25 33  1  0  0  0
 25 34  1  0  0  0
 26 27  1  0  0  0
 26 35  1  0  0  0
 26 36  1  0  0  0
 27 28  1  0  0  0
 27 37  1  0  0  0
 27 38  1  0  0  0
 28 29  1  0  0  0
 28 39  1  0  0  0
 28 40  1  0  0  0
 29 41  1  0  0  0
 29 42  1  0  0  0
M  END
> <b_m_subgroup_collapsed>
1

> <s_m_subgroup_title>
enumerate_141-out

> <s_m_subgroupid>
enumerate_141-out

$$$$
