22433-2
                    3D
 Schrodinger Suite 2024-3.
 41 44  0  0  1  0            999 V2000
   76.7152   51.2564   42.5117 C   0  0  0  0  0  0
   75.6469   51.8672   41.7091 C   0  0  0  0  0  0
   74.7156   52.5958   42.3599 C   0  0  0  0  0  0
   74.7624   52.7581   43.7471 N   0  0  0  0  0  0
   75.7023   52.2182   44.5484 C   0  0  0  0  0  0
   75.6665   52.3767   45.7684 O   0  0  0  0  0  0
   76.7303   51.4438   43.8559 C   0  0  0  0  0  0
   77.7066   50.8711   44.7216 C   0  0  0  0  0  0
   78.4723   50.4247   45.4646 N   0  0  0  0  0  0
   73.5301   53.2752   41.6754 C   0  0  2  0  0  0
   73.5536   53.2080   40.1403 N   0  0  0  0  0  0
   74.1629   51.9154   39.6394 C   0  0  0  0  0  0
   75.5862   51.7783   40.1806 C   0  0  0  0  0  0
   72.6664   52.6907   41.9933 H   0  0  0  0  0  0
   74.0228   53.3179   44.1572 H   0  0  0  0  0  0
   78.2659   50.0552   41.5379 R   0  0  0  0  0  0
   73.5564   51.0654   39.9852 H   0  0  0  0  0  0
   74.1880   51.9241   38.5497 H   0  0  0  0  0  0
   76.5095   51.6308   39.6012 H   0  0  0  0  0  0
   75.7161   52.8584   40.1126 H   0  0  0  0  0  0
   72.6100   53.2702   39.7856 H   0  0  0  0  0  0
   73.3463   54.6872   42.1472 C   0  0  2  0  0  0
   72.0442   54.8828   42.9174 C   0  0  0  0  0  0
   71.7697   56.3790   42.7929 C   0  0  1  0  0  0
   72.1617   56.9870   43.9171 F   0  0  0  0  0  0
   72.6689   56.8349   41.6323 C   0  0  0  0  0  0
   73.2383   55.6235   41.0369 N   0  0  0  0  0  0
   74.5513   55.8991   40.4610 C   0  0  0  0  0  0
   74.6612   56.1284   38.9706 C   0  0  0  0  0  0
   74.8386   57.2847   39.9284 C   0  0  0  0  0  0
   74.2069   54.9397   42.7733 H   0  0  0  0  0  0
   71.2436   54.3189   42.4364 H   0  0  0  0  0  0
   72.1098   54.5386   43.9501 H   0  0  0  0  0  0
   70.7142   56.6175   42.6517 H   0  0  0  0  0  0
   72.1133   57.4180   40.8949 H   0  0  0  0  0  0
   73.4692   57.4788   42.0057 H   0  0  0  0  0  0
   75.3487   55.3543   40.9709 H   0  0  0  0  0  0
   75.5353   55.7435   38.4408 H   0  0  0  0  0  0
   73.7557   56.0821   38.3617 H   0  0  0  0  0  0
   74.0569   58.0450   39.9878 H   0  0  0  0  0  0
   75.8365   57.7064   40.0669 H   0  0  0  0  0  0
  1  2  1  0  0  0
  1  7  2  0  0  0
  1 16  1  0  0  0
  2  3  2  0  0  0
  2 13  1  0  0  0
  3  4  1  0  0  0
  3 10  1  0  0  0
  4  5  1  0  0  0
  4 15  1  0  0  0
  5  6  2  0  0  0
  5  7  1  0  0  0
  7  8  1  0  0  0
  8  9  3  0  0  0
 10 11  1  0  0  0
 10 14  1  0  0  0
 10 22  1  0  0  0
 11 12  1  0  0  0
 11 21  1  0  0  0
 12 13  1  0  0  0
 12 17  1  0  0  0
 12 18  1  0  0  0
 13 19  1  0  0  0
 13 20  1  0  0  0
 22 23  1  0  0  0
 22 27  1  0  0  0
 22 31  1  0  0  0
 23 24  1  0  0  0
 23 32  1  0  0  0
 23 33  1  0  0  0
 24 25  1  0  0  0
 24 26  1  0  0  0
 24 34  1  0  0  0
 26 27  1  0  0  0
 26 35  1  0  0  0
 26 36  1  0  0  0
 27 28  1  0  0  0
 28 29  1  0  0  0
 28 30  1  0  0  0
 28 37  1  0  0  0
 29 30  1  0  0  0
 29 38  1  0  0  0
 29 39  1  0  0  0
 30 40  1  0  0  0
 30 41  1  0  0  0
M  END
> <b_m_subgroup_collapsed>
1

> <s_m_subgroup_title>
enumerate_142-out

> <s_m_subgroupid>
enumerate_142-out

$$$$
