11214-1
                    3D
 Schrodinger Suite 2024-3.
 35 37  0  0  1  0            999 V2000
   76.7152   51.2564   42.5117 C   0  0  0  0  0  0
   75.6469   51.8672   41.7091 C   0  0  0  0  0  0
   74.7156   52.5958   42.3599 C   0  0  0  0  0  0
   74.7624   52.7581   43.7471 N   0  0  0  0  0  0
   75.7023   52.2182   44.5484 C   0  0  0  0  0  0
   75.6665   52.3767   45.7684 O   0  0  0  0  0  0
   76.7303   51.4438   43.8559 C   0  0  0  0  0  0
   77.7066   50.8711   44.7216 C   0  0  0  0  0  0
   78.4723   50.4247   45.4646 N   0  0  0  0  0  0
   73.5301   53.2752   41.6754 C   0  0  2  0  0  0
   73.5536   53.2080   40.1403 N   0  0  0  0  0  0
   74.1629   51.9154   39.6394 C   0  0  0  0  0  0
   75.5862   51.7783   40.1806 C   0  0  0  0  0  0
   72.6664   52.6907   41.9933 H   0  0  0  0  0  0
   74.0228   53.3179   44.1572 H   0  0  0  0  0  0
   78.2659   50.0552   41.5379 R   0  0  0  0  0  0
   73.5564   51.0654   39.9852 H   0  0  0  0  0  0
   74.1880   51.9241   38.5497 H   0  0  0  0  0  0
   76.5095   51.6308   39.6012 H   0  0  0  0  0  0
   75.7161   52.8584   40.1126 H   0  0  0  0  0  0
   72.6100   53.2702   39.7856 H   0  0  0  0  0  0
   73.3512   54.6495   42.1346 N   0  0  0  0  0  0
   72.0490   55.2430   42.3722 C   0  0  0  0  0  0
   72.4738   56.4046   43.2330 C   0  0  0  0  0  0
   73.7985   56.6212   42.6830 N   0  0  0  0  0  0
   74.5449   57.8628   42.8648 C   0  0  0  0  0  0
   74.3665   55.5218   42.1714 C   0  0  0  0  0  0
   75.5301   55.3549   41.8225 O   0  0  0  0  0  0
   71.5563   55.5573   41.4482 H   0  0  0  0  0  0
   71.3877   54.5537   42.9014 H   0  0  0  0  0  0
   71.8364   57.2802   43.0933 H   0  0  0  0  0  0
   72.4969   56.1577   44.2979 H   0  0  0  0  0  0
   75.5084   57.7846   42.3612 H   0  0  0  0  0  0
   73.9793   58.6922   42.4402 H   0  0  0  0  0  0
   74.7042   58.0385   43.9286 H   0  0  0  0  0  0
  1  2  1  0  0  0
  1  7  2  0  0  0
  1 16  1  0  0  0
  2  3  2  0  0  0
  2 13  1  0  0  0
  3  4  1  0  0  0
  3 10  1  0  0  0
  4  5  1  0  0  0
  4 15  1  0  0  0
  5  6  2  0  0  0
  5  7  1  0  0  0
  7  8  1  0  0  0
  8  9  3  0  0  0
 10 11  1  0  0  0
 10 14  1  0  0  0
 10 22  1  0  0  0
 11 12  1  0  0  0
 11 21  1  0  0  0
 12 13  1  0  0  0
 12 17  1  0  0  0
 12 18  1  0  0  0
 13 19  1  0  0  0
 13 20  1  0  0  0
 22 23  1  0  0  0
 22 27  1  0  0  0
 23 24  1  0  0  0
 23 29  1  0  0  0
 23 30  1  0  0  0
 24 25  1  0  0  0
 24 31  1  0  0  0
 24 32  1  0  0  0
 25 26  1  0  0  0
 25 27  1  0  0  0
 26 33  1  0  0  0
 26 34  1  0  0  0
 26 35  1  0  0  0
 27 28  2  0  0  0
M  END
> <b_m_subgroup_collapsed>
1

> <s_m_subgroup_title>
enumerate_141-out

> <s_m_subgroupid>
enumerate_141-out

$$$$
