41138-2
                    3D
 Schrodinger Suite 2024-3.
 42 44  0  0  1  0            999 V2000
   76.7152   51.2564   42.5117 C   0  0  0  0  0  0
   75.6469   51.8672   41.7091 C   0  0  0  0  0  0
   74.7156   52.5958   42.3599 C   0  0  0  0  0  0
   74.7624   52.7581   43.7471 N   0  0  0  0  0  0
   75.7023   52.2182   44.5484 C   0  0  0  0  0  0
   75.6665   52.3767   45.7684 O   0  0  0  0  0  0
   76.7303   51.4438   43.8559 C   0  0  0  0  0  0
   77.7066   50.8711   44.7216 C   0  0  0  0  0  0
   78.4723   50.4247   45.4646 N   0  0  0  0  0  0
   73.5301   53.2752   41.6754 C   0  0  2  0  0  0
   73.5536   53.2080   40.1403 N   0  0  0  0  0  0
   74.1629   51.9154   39.6394 C   0  0  0  0  0  0
   75.5862   51.7783   40.1806 C   0  0  0  0  0  0
   72.6664   52.6907   41.9933 H   0  0  0  0  0  0
   74.0228   53.3179   44.1572 H   0  0  0  0  0  0
   78.2659   50.0552   41.5379 R   0  0  0  0  0  0
   73.5564   51.0654   39.9852 H   0  0  0  0  0  0
   74.1880   51.9241   38.5497 H   0  0  0  0  0  0
   76.5095   51.6308   39.6012 H   0  0  0  0  0  0
   75.7161   52.8584   40.1126 H   0  0  0  0  0  0
   72.6100   53.2702   39.7856 H   0  0  0  0  0  0
   73.3463   54.6872   42.1472 C   0  0  0  0  0  0
   72.0917   54.7822   42.9638 C   0  0  2  0  0  0
   70.8865   54.2850   42.1403 C   0  0  0  0  0  0
   69.5610   54.4474   42.9113 C   0  0  0  0  0  0
   69.3593   55.8948   43.4034 C   0  0  0  0  0  0
   70.5645   56.3920   44.2269 C   0  0  0  0  0  0
   71.8900   56.2296   43.4558 C   0  0  1  0  0  0
   72.9503   56.6100   44.2530 O   0  0  0  0  0  0
   74.2003   54.9803   42.7578 H   0  0  0  0  0  0
   73.2705   55.3510   41.2860 H   0  0  0  0  0  0
   72.2405   54.1245   43.8224 H   0  0  0  0  0  0
   70.8321   54.8432   41.2036 H   0  0  0  0  0  0
   71.0305   53.2401   41.8603 H   0  0  0  0  0  0
   69.5534   53.7691   43.7667 H   0  0  0  0  0  0
   68.7225   54.1466   42.2809 H   0  0  0  0  0  0
   68.4465   55.9640   43.9975 H   0  0  0  0  0  0
   69.2105   56.5525   42.5448 H   0  0  0  0  0  0
   70.6189   55.8338   45.1635 H   0  0  0  0  0  0
   70.4205   57.4369   44.5068 H   0  0  0  0  0  0
   71.8976   56.9079   42.6005 H   0  0  0  0  0  0
   73.0685   56.0688   45.0856 H   0  0  0  0  0  0
  1  2  1  0  0  0
  1  7  2  0  0  0
  1 16  1  0  0  0
  2  3  2  0  0  0
  2 13  1  0  0  0
  3  4  1  0  0  0
  3 10  1  0  0  0
  4  5  1  0  0  0
  4 15  1  0  0  0
  5  6  2  0  0  0
  5  7  1  0  0  0
  7  8  1  0  0  0
  8  9  3  0  0  0
 10 11  1  0  0  0
 10 14  1  0  0  0
 10 22  1  0  0  0
 11 12  1  0  0  0
 11 21  1  0  0  0
 12 13  1  0  0  0
 12 17  1  0  0  0
 12 18  1  0  0  0
 13 19  1  0  0  0
 13 20  1  0  0  0
 22 23  1  0  0  0
 22 30  1  0  0  0
 22 31  1  0  0  0
 23 24  1  0  0  0
 23 28  1  0  0  0
 23 32  1  0  0  0
 24 25  1  0  0  0
 24 33  1  0  0  0
 24 34  1  0  0  0
 25 26  1  0  0  0
 25 35  1  0  0  0
 25 36  1  0  0  0
 26 27  1  0  0  0
 26 37  1  0  0  0
 26 38  1  0  0  0
 27 28  1  0  0  0
 27 39  1  0  0  0
 27 40  1  0  0  0
 28 29  1  0  0  0
 28 41  1  0  0  0
 29 42  1  0  0  0
M  END
> <b_m_subgroup_collapsed>
1

> <s_m_subgroup_title>
enumerate_141-out

> <s_m_subgroupid>
enumerate_141-out

$$$$
