7465-2
                    3D
 Schrodinger Suite 2024-3.
 46 48  0  0  1  0            999 V2000
   76.7152   51.2564   42.5117 C   0  0  0  0  0  0
   75.6469   51.8672   41.7091 C   0  0  0  0  0  0
   74.7156   52.5958   42.3599 C   0  0  0  0  0  0
   74.7624   52.7581   43.7471 N   0  0  0  0  0  0
   75.7023   52.2182   44.5484 C   0  0  0  0  0  0
   75.6665   52.3767   45.7684 O   0  0  0  0  0  0
   76.7303   51.4438   43.8559 C   0  0  0  0  0  0
   77.7066   50.8711   44.7216 C   0  0  0  0  0  0
   78.4723   50.4247   45.4646 N   0  0  0  0  0  0
   73.5301   53.2752   41.6754 C   0  0  2  0  0  0
   73.5536   53.2080   40.1403 N   0  0  0  0  0  0
   74.1629   51.9154   39.6394 C   0  0  0  0  0  0
   75.5862   51.7783   40.1806 C   0  0  0  0  0  0
   72.6664   52.6907   41.9933 H   0  0  0  0  0  0
   74.0228   53.3179   44.1572 H   0  0  0  0  0  0
   78.2659   50.0552   41.5379 R   0  0  0  0  0  0
   73.5564   51.0654   39.9852 H   0  0  0  0  0  0
   74.1880   51.9241   38.5497 H   0  0  0  0  0  0
   76.5095   51.6308   39.6012 H   0  0  0  0  0  0
   75.7161   52.8584   40.1126 H   0  0  0  0  0  0
   72.6100   53.2702   39.7856 H   0  0  0  0  0  0
   71.5834   60.4110   43.5674 C   0  0  0  0  0  0
   71.5371   58.9605   43.1882 C   0  0  0  0  0  0
   70.7539   58.1438   43.6827 O   0  0  0  0  0  0
   72.4500   58.6542   42.2412 N   0  0  0  0  0  0
   73.4031   59.6765   41.7733 C   0  0  0  0  0  0
   74.8012   59.2430   42.2702 C   0  0  0  0  0  0
   75.1575   57.8050   41.8451 C   0  0  0  0  0  0
   74.0401   56.8224   42.2468 C   0  0  2  0  0  0
   74.3450   55.4554   41.7098 C   0  0  0  0  0  0
   73.3610   54.5742   42.1095 O   0  0  0  0  0  0
   72.6475   57.2756   41.7519 C   0  0  0  0  0  0
   72.3587   60.9132   42.9887 H   0  0  0  0  0  0
   70.6180   60.8721   43.3587 H   0  0  0  0  0  0
   71.8072   60.5017   44.6303 H   0  0  0  0  0  0
   73.1614   60.6832   42.1228 H   0  0  0  0  0  0
   73.3855   59.7057   40.6819 H   0  0  0  0  0  0
   74.8403   59.3219   43.3585 H   0  0  0  0  0  0
   75.5546   59.9375   41.8955 H   0  0  0  0  0  0
   76.1086   57.5016   42.2865 H   0  0  0  0  0  0
   75.2999   57.7706   40.7631 H   0  0  0  0  0  0
   74.0200   56.7171   43.3333 H   0  0  0  0  0  0
   75.3093   55.1213   42.0927 H   0  0  0  0  0  0
   74.3794   55.4921   40.6209 H   0  0  0  0  0  0
   72.6168   57.2767   40.6606 H   0  0  0  0  0  0
   71.8703   56.5881   42.0936 H   0  0  0  0  0  0
  1  2  1  0  0  0
  1  7  2  0  0  0
  1 16  1  0  0  0
  2  3  2  0  0  0
  2 13  1  0  0  0
  3  4  1  0  0  0
  3 10  1  0  0  0
  4  5  1  0  0  0
  4 15  1  0  0  0
  5  6  2  0  0  0
  5  7  1  0  0  0
  7  8  1  0  0  0
  8  9  3  0  0  0
 10 11  1  0  0  0
 10 14  1  0  0  0
 10 31  1  0  0  0
 11 12  1  0  0  0
 11 21  1  0  0  0
 12 13  1  0  0  0
 12 17  1  0  0  0
 12 18  1  0  0  0
 13 19  1  0  0  0
 13 20  1  0  0  0
 22 23  1  0  0  0
 22 33  1  0  0  0
 22 34  1  0  0  0
 22 35  1  0  0  0
 23 24  2  0  0  0
 23 25  1  0  0  0
 25 26  1  0  0  0
 25 32  1  0  0  0
 26 27  1  0  0  0
 26 36  1  0  0  0
 26 37  1  0  0  0
 27 28  1  0  0  0
 27 38  1  0  0  0
 27 39  1  0  0  0
 28 29  1  0  0  0
 28 40  1  0  0  0
 28 41  1  0  0  0
 29 30  1  0  0  0
 29 32  1  0  0  0
 29 42  1  0  0  0
 30 31  1  0  0  0
 30 43  1  0  0  0
 30 44  1  0  0  0
 32 45  1  0  0  0
 32 46  1  0  0  0
M  END
> <b_m_subgroup_collapsed>
1

> <s_m_subgroup_title>
enumerate_141-out

> <s_m_subgroupid>
enumerate_141-out

$$$$
