11937-1
                    3D
 Schrodinger Suite 2024-3.
 43 47  0  0  1  0            999 V2000
   76.7152   51.2564   42.5117 C   0  0  0  0  0  0
   75.6469   51.8672   41.7091 C   0  0  0  0  0  0
   74.7156   52.5958   42.3599 C   0  0  0  0  0  0
   74.7624   52.7581   43.7471 N   0  0  0  0  0  0
   75.7023   52.2182   44.5484 C   0  0  0  0  0  0
   75.6665   52.3767   45.7684 O   0  0  0  0  0  0
   76.7303   51.4438   43.8559 C   0  0  0  0  0  0
   77.7066   50.8711   44.7216 C   0  0  0  0  0  0
   78.4723   50.4247   45.4646 N   0  0  0  0  0  0
   73.5301   53.2752   41.6754 C   0  0  2  0  0  0
   73.5536   53.2080   40.1403 N   0  0  0  0  0  0
   74.1629   51.9154   39.6394 C   0  0  0  0  0  0
   75.5862   51.7783   40.1806 C   0  0  0  0  0  0
   72.6664   52.6907   41.9933 H   0  0  0  0  0  0
   74.0228   53.3179   44.1572 H   0  0  0  0  0  0
   78.2659   50.0552   41.5379 R   0  0  0  0  0  0
   73.5564   51.0654   39.9852 H   0  0  0  0  0  0
   74.1880   51.9241   38.5497 H   0  0  0  0  0  0
   76.5095   51.6308   39.6012 H   0  0  0  0  0  0
   75.7161   52.8584   40.1126 H   0  0  0  0  0  0
   72.6100   53.2702   39.7856 H   0  0  0  0  0  0
   73.3463   54.6872   42.1472 C   0  0  1  0  0  0
   72.0428   54.8515   43.0121 C   0  0  0  0  0  0
   71.8813   56.3416   43.4895 C   0  0  1  0  0  0
   73.1553   56.8070   44.2119 C   0  0  0  0  0  0
   74.1897   56.7057   43.0699 C   0  0  1  0  0  0
   74.5648   55.2153   42.9205 C   0  0  0  0  0  0
   73.3716   57.0320   41.7749 C   0  0  2  0  0  0
   71.9372   57.2927   42.2838 C   0  0  0  0  0  0
   73.3466   55.7010   40.9924 C   0  0  0  0  0  0
   71.1693   54.5481   42.4328 H   0  0  0  0  0  0
   72.0806   54.1848   43.8751 H   0  0  0  0  0  0
   70.9820   56.4806   44.0927 H   0  0  0  0  0  0
   73.4001   56.1907   45.0791 H   0  0  0  0  0  0
   73.0605   57.8342   44.5716 H   0  0  0  0  0  0
   75.0588   57.3477   43.2272 H   0  0  0  0  0  0
   74.7157   54.7049   43.8737 H   0  0  0  0  0  0
   75.4873   55.0936   42.3480 H   0  0  0  0  0  0
   73.7701   57.8615   41.1874 H   0  0  0  0  0  0
   71.8070   58.3341   42.5874 H   0  0  0  0  0  0
   71.1650   57.0819   41.5414 H   0  0  0  0  0  0
   74.2338   55.5934   40.3638 H   0  0  0  0  0  0
   72.4806   55.5961   40.3359 H   0  0  0  0  0  0
  1  2  1  0  0  0
  1  7  2  0  0  0
  1 16  1  0  0  0
  2  3  2  0  0  0
  2 13  1  0  0  0
  3  4  1  0  0  0
  3 10  1  0  0  0
  4  5  1  0  0  0
  4 15  1  0  0  0
  5  6  2  0  0  0
  5  7  1  0  0  0
  7  8  1  0  0  0
  8  9  3  0  0  0
 10 11  1  0  0  0
 10 14  1  0  0  0
 10 22  1  0  0  0
 11 12  1  0  0  0
 11 21  1  0  0  0
 12 13  1  0  0  0
 12 17  1  0  0  0
 12 18  1  0  0  0
 13 19  1  0  0  0
 13 20  1  0  0  0
 22 23  1  0  0  0
 22 27  1  0  0  0
 22 30  1  0  0  0
 23 24  1  0  0  0
 23 31  1  0  0  0
 23 32  1  0  0  0
 24 25  1  0  0  0
 24 29  1  0  0  0
 24 33  1  0  0  0
 25 26  1  0  0  0
 25 34  1  0  0  0
 25 35  1  0  0  0
 26 27  1  0  0  0
 26 28  1  0  0  0
 26 36  1  0  0  0
 27 37  1  0  0  0
 27 38  1  0  0  0
 28 29  1  0  0  0
 28 30  1  0  0  0
 28 39  1  0  0  0
 29 40  1  0  0  0
 29 41  1  0  0  0
 30 42  1  0  0  0
 30 43  1  0  0  0
M  END
> <b_m_subgroup_collapsed>
1

> <s_m_subgroup_title>
enumerate_141-out

> <s_m_subgroupid>
enumerate_141-out

$$$$
