24555-4
                    3D
 Schrodinger Suite 2024-3.
 38 40  0  0  1  0            999 V2000
   76.7152   51.2564   42.5117 C   0  0  0  0  0  0
   75.6469   51.8672   41.7091 C   0  0  0  0  0  0
   74.7156   52.5958   42.3599 C   0  0  0  0  0  0
   74.7624   52.7581   43.7471 N   0  0  0  0  0  0
   75.7023   52.2182   44.5484 C   0  0  0  0  0  0
   75.6665   52.3767   45.7684 O   0  0  0  0  0  0
   76.7303   51.4438   43.8559 C   0  0  0  0  0  0
   77.7066   50.8711   44.7216 C   0  0  0  0  0  0
   78.4723   50.4247   45.4646 N   0  0  0  0  0  0
   73.5301   53.2752   41.6754 C   0  0  2  0  0  0
   73.5536   53.2080   40.1403 N   0  0  0  0  0  0
   74.1629   51.9154   39.6394 C   0  0  0  0  0  0
   75.5862   51.7783   40.1806 C   0  0  0  0  0  0
   72.6664   52.6907   41.9933 H   0  0  0  0  0  0
   74.0228   53.3179   44.1572 H   0  0  0  0  0  0
   78.2659   50.0552   41.5379 R   0  0  0  0  0  0
   73.5564   51.0654   39.9852 H   0  0  0  0  0  0
   74.1880   51.9241   38.5497 H   0  0  0  0  0  0
   76.5095   51.6308   39.6012 H   0  0  0  0  0  0
   75.7161   52.8584   40.1126 H   0  0  0  0  0  0
   72.6100   53.2702   39.7856 H   0  0  0  0  0  0
   73.3610   54.5742   42.1095 O   0  0  0  0  0  0
   72.1960   55.1827   41.6888 C   0  0  1  0  0  0
   71.3262   55.5808   42.8931 C   0  0  0  0  0  0
   70.1004   56.4045   42.4540 C   0  0  0  0  0  0
   70.5240   57.5386   41.6914 O   0  0  0  0  0  0
   71.2285   57.2072   40.4909 C   0  0  0  0  0  0
   72.5092   56.4226   40.8345 C   0  0  2  0  0  0
   73.1643   56.0557   39.6766 O   0  0  0  0  0  0
   71.6675   54.4435   41.0828 H   0  0  0  0  0  0
   71.0042   54.6930   43.4394 H   0  0  0  0  0  0
   71.9185   56.1711   43.5943 H   0  0  0  0  0  0
   69.5461   56.7495   43.3280 H   0  0  0  0  0  0
   69.4084   55.7932   41.8705 H   0  0  0  0  0  0
   71.4811   58.1266   39.9607 H   0  0  0  0  0  0
   70.5857   56.6310   39.8218 H   0  0  0  0  0  0
   73.1931   57.0782   41.3762 H   0  0  0  0  0  0
   74.0811   56.4404   39.5697 H   0  0  0  0  0  0
  1  2  1  0  0  0
  1  7  2  0  0  0
  1 16  1  0  0  0
  2  3  2  0  0  0
  2 13  1  0  0  0
  3  4  1  0  0  0
  3 10  1  0  0  0
  4  5  1  0  0  0
  4 15  1  0  0  0
  5  6  2  0  0  0
  5  7  1  0  0  0
  7  8  1  0  0  0
  8  9  3  0  0  0
 10 11  1  0  0  0
 10 14  1  0  0  0
 10 22  1  0  0  0
 11 12  1  0  0  0
 11 21  1  0  0  0
 12 13  1  0  0  0
 12 17  1  0  0  0
 12 18  1  0  0  0
 13 19  1  0  0  0
 13 20  1  0  0  0
 22 23  1  0  0  0
 23 24  1  0  0  0
 23 28  1  0  0  0
 23 30  1  0  0  0
 24 25  1  0  0  0
 24 31  1  0  0  0
 24 32  1  0  0  0
 25 26  1  0  0  0
 25 33  1  0  0  0
 25 34  1  0  0  0
 26 27  1  0  0  0
 27 28  1  0  0  0
 27 35  1  0  0  0
 27 36  1  0  0  0
 28 29  1  0  0  0
 28 37  1  0  0  0
 29 38  1  0  0  0
M  END
> <b_m_subgroup_collapsed>
1

> <s_m_subgroup_title>
enumerate_142-out

> <s_m_subgroupid>
enumerate_142-out

$$$$
