29570-1
                    3D
 Schrodinger Suite 2024-3.
 42 44  0  0  1  0            999 V2000
   76.7152   51.2564   42.5117 C   0  0  0  0  0  0
   75.6469   51.8672   41.7091 C   0  0  0  0  0  0
   74.7156   52.5958   42.3599 C   0  0  0  0  0  0
   74.7624   52.7581   43.7471 N   0  0  0  0  0  0
   75.7023   52.2182   44.5484 C   0  0  0  0  0  0
   75.6665   52.3767   45.7684 O   0  0  0  0  0  0
   76.7303   51.4438   43.8559 C   0  0  0  0  0  0
   77.7066   50.8711   44.7216 C   0  0  0  0  0  0
   78.4723   50.4247   45.4646 N   0  0  0  0  0  0
   73.5301   53.2752   41.6754 C   0  0  2  0  0  0
   73.5536   53.2080   40.1403 N   0  0  0  0  0  0
   74.1629   51.9154   39.6394 C   0  0  0  0  0  0
   75.5862   51.7783   40.1806 C   0  0  0  0  0  0
   72.6664   52.6907   41.9933 H   0  0  0  0  0  0
   74.0228   53.3179   44.1572 H   0  0  0  0  0  0
   78.2659   50.0552   41.5379 R   0  0  0  0  0  0
   73.5564   51.0654   39.9852 H   0  0  0  0  0  0
   74.1880   51.9241   38.5497 H   0  0  0  0  0  0
   76.5095   51.6308   39.6012 H   0  0  0  0  0  0
   75.7161   52.8584   40.1126 H   0  0  0  0  0  0
   72.6100   53.2702   39.7856 H   0  0  0  0  0  0
   73.2890   57.1546   46.7548 C   0  0  0  0  0  0
   73.3252   57.8489   45.4256 C   0  0  0  0  0  0
   73.0936   56.8482   44.3324 C   0  0  0  0  0  0
   73.1299   57.5425   43.0032 C   0  0  0  0  0  0
   74.1969   56.9729   42.1856 N   0  0  0  0  0  0
   75.2838   57.6228   41.6626 C   0  0  0  0  0  0
   76.0273   56.7849   40.9818 N   0  0  0  0  0  0
   75.4146   55.5339   41.0538 N   0  0  0  0  0  0
   74.3287   55.6725   41.7748 C   0  0  0  0  0  0
   73.3512   54.6495   42.1346 N   0  0  0  0  0  0
   73.4573   57.8817   47.5492 H   0  0  0  0  0  0
   72.3153   56.6846   46.8928 H   0  0  0  0  0  0
   74.0681   56.3931   46.7883 H   0  0  0  0  0  0
   74.2990   58.3189   45.2876 H   0  0  0  0  0  0
   72.5461   58.6104   45.3921 H   0  0  0  0  0  0
   72.1199   56.3782   44.4704 H   0  0  0  0  0  0
   73.8728   56.0867   44.3659 H   0  0  0  0  0  0
   73.3157   58.6059   43.1537 H   0  0  0  0  0  0
   72.1737   57.4088   42.4973 H   0  0  0  0  0  0
   75.4488   58.6828   41.8254 H   0  0  0  0  0  0
   72.5315   54.8986   42.7151 H   0  0  0  0  0  0
  1  2  1  0  0  0
  1  7  2  0  0  0
  1 16  1  0  0  0
  2  3  2  0  0  0
  2 13  1  0  0  0
  3  4  1  0  0  0
  3 10  1  0  0  0
  4  5  1  0  0  0
  4 15  1  0  0  0
  5  6  2  0  0  0
  5  7  1  0  0  0
  7  8  1  0  0  0
  8  9  3  0  0  0
 10 11  1  0  0  0
 10 14  1  0  0  0
 10 31  1  0  0  0
 11 12  1  0  0  0
 11 21  1  0  0  0
 12 13  1  0  0  0
 12 17  1  0  0  0
 12 18  1  0  0  0
 13 19  1  0  0  0
 13 20  1  0  0  0
 22 23  1  0  0  0
 22 32  1  0  0  0
 22 33  1  0  0  0
 22 34  1  0  0  0
 23 24  1  0  0  0
 23 35  1  0  0  0
 23 36  1  0  0  0
 24 25  1  0  0  0
 24 37  1  0  0  0
 24 38  1  0  0  0
 25 26  1  0  0  0
 25 39  1  0  0  0
 25 40  1  0  0  0
 26 27  1  0  0  0
 26 30  1  0  0  0
 27 28  2  0  0  0
 27 41  1  0  0  0
 28 29  1  0  0  0
 29 30  2  0  0  0
 30 31  1  0  0  0
 31 42  1  0  0  0
M  END
> <b_m_subgroup_collapsed>
1

> <s_m_subgroup_title>
enumerate_142-out

> <s_m_subgroupid>
enumerate_142-out

$$$$
