22950-7
                    3D
 Schrodinger Suite 2024-3.
 44 47  0  0  1  0            999 V2000
   76.7152   51.2564   42.5117 C   0  0  0  0  0  0
   75.6469   51.8672   41.7091 C   0  0  0  0  0  0
   74.7156   52.5958   42.3599 C   0  0  0  0  0  0
   74.7624   52.7581   43.7471 N   0  0  0  0  0  0
   75.7023   52.2182   44.5484 C   0  0  0  0  0  0
   75.6665   52.3767   45.7684 O   0  0  0  0  0  0
   76.7303   51.4438   43.8559 C   0  0  0  0  0  0
   77.7066   50.8711   44.7216 C   0  0  0  0  0  0
   78.4723   50.4247   45.4646 N   0  0  0  0  0  0
   73.5301   53.2752   41.6754 C   0  0  2  0  0  0
   73.5536   53.2080   40.1403 N   0  0  0  0  0  0
   74.1629   51.9154   39.6394 C   0  0  0  0  0  0
   75.5862   51.7783   40.1806 C   0  0  0  0  0  0
   72.6664   52.6907   41.9933 H   0  0  0  0  0  0
   74.0228   53.3179   44.1572 H   0  0  0  0  0  0
   78.2659   50.0552   41.5379 R   0  0  0  0  0  0
   73.5564   51.0654   39.9852 H   0  0  0  0  0  0
   74.1880   51.9241   38.5497 H   0  0  0  0  0  0
   76.5095   51.6308   39.6012 H   0  0  0  0  0  0
   75.7161   52.8584   40.1126 H   0  0  0  0  0  0
   72.6100   53.2702   39.7856 H   0  0  0  0  0  0
   73.3610   54.5742   42.1095 O   0  0  0  0  0  0
   74.3450   55.4554   41.7098 C   0  0  2  0  0  0
   75.0357   56.0775   42.9452 C   0  0  0  0  0  0
   74.1248   57.0829   43.6974 C   0  0  0  0  0  0
   73.5514   58.0509   42.8024 O   0  0  0  0  0  0
   72.8046   57.4369   41.7544 C   0  0  1  0  0  0
   72.1787   58.3967   40.7484 C   0  0  0  0  0  0
   72.0212   57.5488   39.4635 C   0  0  0  0  0  0
   72.8619   56.2682   39.6718 C   0  0  0  0  0  0
   73.7354   56.5969   40.8845 C   0  0  2  0  0  0
   75.0569   54.8800   41.1151 H   0  0  0  0  0  0
   75.3706   55.2948   43.6273 H   0  0  0  0  0  0
   75.9382   56.6009   42.6251 H   0  0  0  0  0  0
   73.3286   56.5520   44.2238 H   0  0  0  0  0  0
   74.6975   57.6051   44.4650 H   0  0  0  0  0  0
   72.0195   56.8255   42.2099 H   0  0  0  0  0  0
   71.2315   58.8038   41.1041 H   0  0  0  0  0  0
   72.8517   59.2369   40.5692 H   0  0  0  0  0  0
   70.9756   57.2926   39.2819 H   0  0  0  0  0  0
   72.3656   58.1102   38.5928 H   0  0  0  0  0  0
   73.4508   56.0048   38.7913 H   0  0  0  0  0  0
   72.2080   55.4216   39.8926 H   0  0  0  0  0  0
   74.5552   57.2344   40.5411 H   0  0  0  0  0  0
  1  2  1  0  0  0
  1  7  2  0  0  0
  1 16  1  0  0  0
  2  3  2  0  0  0
  2 13  1  0  0  0
  3  4  1  0  0  0
  3 10  1  0  0  0
  4  5  1  0  0  0
  4 15  1  0  0  0
  5  6  2  0  0  0
  5  7  1  0  0  0
  7  8  1  0  0  0
  8  9  3  0  0  0
 10 11  1  0  0  0
 10 14  1  0  0  0
 10 22  1  0  0  0
 11 12  1  0  0  0
 11 21  1  0  0  0
 12 13  1  0  0  0
 12 17  1  0  0  0
 12 18  1  0  0  0
 13 19  1  0  0  0
 13 20  1  0  0  0
 22 23  1  0  0  0
 23 24  1  0  0  0
 23 31  1  0  0  0
 23 32  1  0  0  0
 24 25  1  0  0  0
 24 33  1  0  0  0
 24 34  1  0  0  0
 25 26  1  0  0  0
 25 35  1  0  0  0
 25 36  1  0  0  0
 26 27  1  0  0  0
 27 28  1  0  0  0
 27 31  1  0  0  0
 27 37  1  0  0  0
 28 29  1  0  0  0
 28 38  1  0  0  0
 28 39  1  0  0  0
 29 30  1  0  0  0
 29 40  1  0  0  0
 29 41  1  0  0  0
 30 31  1  0  0  0
 30 42  1  0  0  0
 30 43  1  0  0  0
 31 44  1  0  0  0
M  END
> <b_m_subgroup_collapsed>
1

> <s_m_subgroup_title>
enumerate_141-out

> <s_m_subgroupid>
enumerate_141-out

$$$$
