5518-2
                    3D
 Schrodinger Suite 2024-3.
 42 45  0  0  1  0            999 V2000
   76.7152   51.2564   42.5117 C   0  0  0  0  0  0
   75.6469   51.8672   41.7091 C   0  0  0  0  0  0
   74.7156   52.5958   42.3599 C   0  0  0  0  0  0
   74.7624   52.7581   43.7471 N   0  0  0  0  0  0
   75.7023   52.2182   44.5484 C   0  0  0  0  0  0
   75.6665   52.3767   45.7684 O   0  0  0  0  0  0
   76.7303   51.4438   43.8559 C   0  0  0  0  0  0
   77.7066   50.8711   44.7216 C   0  0  0  0  0  0
   78.4723   50.4247   45.4646 N   0  0  0  0  0  0
   73.5301   53.2752   41.6754 C   0  0  2  0  0  0
   73.5536   53.2080   40.1403 N   0  0  0  0  0  0
   74.1629   51.9154   39.6394 C   0  0  0  0  0  0
   75.5862   51.7783   40.1806 C   0  0  0  0  0  0
   72.6664   52.6907   41.9933 H   0  0  0  0  0  0
   74.0228   53.3179   44.1572 H   0  0  0  0  0  0
   78.2659   50.0552   41.5379 R   0  0  0  0  0  0
   73.5564   51.0654   39.9852 H   0  0  0  0  0  0
   74.1880   51.9241   38.5497 H   0  0  0  0  0  0
   76.5095   51.6308   39.6012 H   0  0  0  0  0  0
   75.7161   52.8584   40.1126 H   0  0  0  0  0  0
   72.6100   53.2702   39.7856 H   0  0  0  0  0  0
   73.3463   54.6872   42.1472 C   0  0  0  0  0  0
   72.0917   54.7822   42.9638 C   0  0  2  0  0  0
   70.8517   54.5357   42.0828 C   0  0  0  0  0  0
   70.0847   55.8661   42.1964 C   0  0  1  0  0  0
   69.4801   55.9840   43.6077 C   0  0  0  0  0  0
   70.7200   56.2304   44.4888 C   0  0  0  0  0  0
   71.8708   56.2211   43.4658 C   0  0  2  0  0  0
   71.2210   56.8806   42.2548 C   0  0  0  0  0  0
   74.2003   54.9803   42.7578 H   0  0  0  0  0  0
   73.2705   55.3510   41.2860 H   0  0  0  0  0  0
   72.1715   54.0652   43.7819 H   0  0  0  0  0  0
   71.1466   54.3434   41.0502 H   0  0  0  0  0  0
   70.2597   53.6854   42.4241 H   0  0  0  0  0  0
   69.3622   56.0259   41.3949 H   0  0  0  0  0  0
   68.7928   56.8291   43.6673 H   0  0  0  0  0  0
   68.9319   55.0875   43.9002 H   0  0  0  0  0  0
   70.8432   55.4674   45.2585 H   0  0  0  0  0  0
   70.6503   57.1983   44.9873 H   0  0  0  0  0  0
   72.7803   56.7051   43.8242 H   0  0  0  0  0  0
   70.8825   57.9007   42.4458 H   0  0  0  0  0  0
   71.8542   56.8744   41.3656 H   0  0  0  0  0  0
  1  2  1  0  0  0
  1  7  2  0  0  0
  1 16  1  0  0  0
  2  3  2  0  0  0
  2 13  1  0  0  0
  3  4  1  0  0  0
  3 10  1  0  0  0
  4  5  1  0  0  0
  4 15  1  0  0  0
  5  6  2  0  0  0
  5  7  1  0  0  0
  7  8  1  0  0  0
  8  9  3  0  0  0
 10 11  1  0  0  0
 10 14  1  0  0  0
 10 22  1  0  0  0
 11 12  1  0  0  0
 11 21  1  0  0  0
 12 13  1  0  0  0
 12 17  1  0  0  0
 12 18  1  0  0  0
 13 19  1  0  0  0
 13 20  1  0  0  0
 22 23  1  0  0  0
 22 30  1  0  0  0
 22 31  1  0  0  0
 23 24  1  0  0  0
 23 28  1  0  0  0
 23 32  1  0  0  0
 24 25  1  0  0  0
 24 33  1  0  0  0
 24 34  1  0  0  0
 25 26  1  0  0  0
 25 29  1  0  0  0
 25 35  1  0  0  0
 26 27  1  0  0  0
 26 36  1  0  0  0
 26 37  1  0  0  0
 27 28  1  0  0  0
 27 38  1  0  0  0
 27 39  1  0  0  0
 28 29  1  0  0  0
 28 40  1  0  0  0
 29 41  1  0  0  0
 29 42  1  0  0  0
M  END
> <b_m_subgroup_collapsed>
1

> <s_m_subgroup_title>
enumerate_141-out

> <s_m_subgroupid>
enumerate_141-out

$$$$
