36329-1
                    3D
 Schrodinger Suite 2024-3.
 40 42  0  0  1  0            999 V2000
   76.7152   51.2564   42.5117 C   0  0  0  0  0  0
   75.6469   51.8672   41.7091 C   0  0  0  0  0  0
   74.7156   52.5958   42.3599 C   0  0  0  0  0  0
   74.7624   52.7581   43.7471 N   0  0  0  0  0  0
   75.7023   52.2182   44.5484 C   0  0  0  0  0  0
   75.6665   52.3767   45.7684 O   0  0  0  0  0  0
   76.7303   51.4438   43.8559 C   0  0  0  0  0  0
   77.7066   50.8711   44.7216 C   0  0  0  0  0  0
   78.4723   50.4247   45.4646 N   0  0  0  0  0  0
   73.5301   53.2752   41.6754 C   0  0  2  0  0  0
   73.5536   53.2080   40.1403 N   0  0  0  0  0  0
   74.1629   51.9154   39.6394 C   0  0  0  0  0  0
   75.5862   51.7783   40.1806 C   0  0  0  0  0  0
   72.6664   52.6907   41.9933 H   0  0  0  0  0  0
   74.0228   53.3179   44.1572 H   0  0  0  0  0  0
   78.2659   50.0552   41.5379 R   0  0  0  0  0  0
   73.5564   51.0654   39.9852 H   0  0  0  0  0  0
   74.1880   51.9241   38.5497 H   0  0  0  0  0  0
   76.5095   51.6308   39.6012 H   0  0  0  0  0  0
   75.7161   52.8584   40.1126 H   0  0  0  0  0  0
   72.6100   53.2702   39.7856 H   0  0  0  0  0  0
   73.3463   54.6872   42.1472 C   0  0  0  0  0  0
   72.4138   55.0882   42.8374 O   0  0  0  0  0  0
   74.3300   55.4826   41.7261 N   0  0  0  0  0  0
   74.4474   56.9097   42.0114 C   0  0  1  0  0  0
   75.9164   57.3031   42.1199 C   0  0  0  0  0  0
   76.4469   58.4043   41.5530 C   0  0  0  0  0  0
   75.6454   59.4215   40.7484 C   0  0  0  0  0  0
   74.1251   59.2173   40.9476 C   0  0  0  0  0  0
   73.7303   57.7284   40.9124 C   0  0  0  0  0  0
   73.9698   57.0696   42.9795 H   0  0  0  0  0  0
   76.5804   56.6570   42.6800 H   0  0  0  0  0  0
   77.5073   58.5767   41.6865 H   0  0  0  0  0  0
   75.9263   60.4350   41.0393 H   0  0  0  0  0  0
   75.9093   59.3202   39.6943 H   0  0  0  0  0  0
   73.8248   59.6418   41.9076 H   0  0  0  0  0  0
   73.5739   59.7742   40.1881 H   0  0  0  0  0  0
   73.9808   57.3176   39.9323 H   0  0  0  0  0  0
   72.6493   57.6199   41.0154 H   0  0  0  0  0  0
   75.1143   55.1953   41.1582 H   0  0  0  0  0  0
  1  2  1  0  0  0
  1  7  2  0  0  0
  1 16  1  0  0  0
  2  3  2  0  0  0
  2 13  1  0  0  0
  3  4  1  0  0  0
  3 10  1  0  0  0
  4  5  1  0  0  0
  4 15  1  0  0  0
  5  6  2  0  0  0
  5  7  1  0  0  0
  7  8  1  0  0  0
  8  9  3  0  0  0
 10 11  1  0  0  0
 10 14  1  0  0  0
 10 22  1  0  0  0
 11 12  1  0  0  0
 11 21  1  0  0  0
 12 13  1  0  0  0
 12 17  1  0  0  0
 12 18  1  0  0  0
 13 19  1  0  0  0
 13 20  1  0  0  0
 22 23  2  0  0  0
 22 24  1  0  0  0
 24 25  1  0  0  0
 24 40  1  0  0  0
 25 26  1  0  0  0
 25 30  1  0  0  0
 25 31  1  0  0  0
 26 27  2  0  0  0
 26 32  1  0  0  0
 27 28  1  0  0  0
 27 33  1  0  0  0
 28 29  1  0  0  0
 28 34  1  0  0  0
 28 35  1  0  0  0
 29 30  1  0  0  0
 29 36  1  0  0  0
 29 37  1  0  0  0
 30 38  1  0  0  0
 30 39  1  0  0  0
M  END
> <b_m_subgroup_collapsed>
1

> <s_m_subgroup_title>
enumerate_142-out

> <s_m_subgroupid>
enumerate_142-out

$$$$
