24806-1
                    3D
 Schrodinger Suite 2024-3.
 45 46  0  0  1  0            999 V2000
   76.7152   51.2564   42.5117 C   0  0  0  0  0  0
   75.6469   51.8672   41.7091 C   0  0  0  0  0  0
   74.7156   52.5958   42.3599 C   0  0  0  0  0  0
   74.7624   52.7581   43.7471 N   0  0  0  0  0  0
   75.7023   52.2182   44.5484 C   0  0  0  0  0  0
   75.6665   52.3767   45.7684 O   0  0  0  0  0  0
   76.7303   51.4438   43.8559 C   0  0  0  0  0  0
   77.7066   50.8711   44.7216 C   0  0  0  0  0  0
   78.4723   50.4247   45.4646 N   0  0  0  0  0  0
   73.5301   53.2752   41.6754 C   0  0  2  0  0  0
   73.5536   53.2080   40.1403 N   0  0  0  0  0  0
   74.1629   51.9154   39.6394 C   0  0  0  0  0  0
   75.5862   51.7783   40.1806 C   0  0  0  0  0  0
   72.6664   52.6907   41.9933 H   0  0  0  0  0  0
   74.0228   53.3179   44.1572 H   0  0  0  0  0  0
   78.2659   50.0552   41.5379 R   0  0  0  0  0  0
   73.5564   51.0654   39.9852 H   0  0  0  0  0  0
   74.1880   51.9241   38.5497 H   0  0  0  0  0  0
   76.5095   51.6308   39.6012 H   0  0  0  0  0  0
   75.7161   52.8584   40.1126 H   0  0  0  0  0  0
   72.6100   53.2702   39.7856 H   0  0  0  0  0  0
   70.0497   57.6173   39.1938 C   0  0  0  0  0  0
   71.1819   57.7739   39.9671 O   0  0  0  0  0  0
   71.1813   57.0664   41.1520 C   0  0  0  0  0  0
   72.4616   57.3252   41.8895 C   0  0  0  0  0  0
   72.4609   56.5561   43.1774 C   0  0  0  0  0  0
   73.7412   56.8149   43.9149 C   0  0  0  0  0  0
   71.3006   56.9945   44.0209 C   0  0  0  0  0  0
   72.3404   55.0900   42.8842 C   0  0  0  0  0  0
   71.4326   54.3615   43.2742 O   0  0  0  0  0  0
   73.3512   54.6495   42.1346 N   0  0  0  0  0  0
   70.1453   58.2118   38.2852 H   0  0  0  0  0  0
   69.1770   57.9502   39.7557 H   0  0  0  0  0  0
   69.9326   56.5663   38.9297 H   0  0  0  0  0  0
   70.3381   57.3849   41.7649 H   0  0  0  0  0  0
   71.0937   56.0010   40.9390 H   0  0  0  0  0  0
   73.3048   57.0066   41.2766 H   0  0  0  0  0  0
   72.5492   58.3905   42.1025 H   0  0  0  0  0  0
   73.8288   57.8803   44.1279 H   0  0  0  0  0  0
   73.7407   56.2561   44.8508 H   0  0  0  0  0  0
   74.5844   56.4964   43.3020 H   0  0  0  0  0  0
   71.3882   58.0598   44.2339 H   0  0  0  0  0  0
   70.3703   56.8064   43.4849 H   0  0  0  0  0  0
   71.3001   56.4356   44.9567 H   0  0  0  0  0  0
   74.1168   55.2127   41.7928 H   0  0  0  0  0  0
  1  2  1  0  0  0
  1  7  2  0  0  0
  1 16  1  0  0  0
  2  3  2  0  0  0
  2 13  1  0  0  0
  3  4  1  0  0  0
  3 10  1  0  0  0
  4  5  1  0  0  0
  4 15  1  0  0  0
  5  6  2  0  0  0
  5  7  1  0  0  0
  7  8  1  0  0  0
  8  9  3  0  0  0
 10 11  1  0  0  0
 10 14  1  0  0  0
 10 31  1  0  0  0
 11 12  1  0  0  0
 11 21  1  0  0  0
 12 13  1  0  0  0
 12 17  1  0  0  0
 12 18  1  0  0  0
 13 19  1  0  0  0
 13 20  1  0  0  0
 22 23  1  0  0  0
 22 32  1  0  0  0
 22 33  1  0  0  0
 22 34  1  0  0  0
 23 24  1  0  0  0
 24 25  1  0  0  0
 24 35  1  0  0  0
 24 36  1  0  0  0
 25 26  1  0  0  0
 25 37  1  0  0  0
 25 38  1  0  0  0
 26 27  1  0  0  0
 26 28  1  0  0  0
 26 29  1  0  0  0
 27 39  1  0  0  0
 27 40  1  0  0  0
 27 41  1  0  0  0
 28 42  1  0  0  0
 28 43  1  0  0  0
 28 44  1  0  0  0
 29 30  2  0  0  0
 29 31  1  0  0  0
 31 45  1  0  0  0
M  END
> <b_m_subgroup_collapsed>
1

> <s_m_subgroup_title>
enumerate_142-out

> <s_m_subgroupid>
enumerate_142-out

$$$$
