41329-4
                    3D
 Schrodinger Suite 2024-3.
 44 46  0  0  1  0            999 V2000
   76.7152   51.2564   42.5117 C   0  0  0  0  0  0
   75.6469   51.8672   41.7091 C   0  0  0  0  0  0
   74.7156   52.5958   42.3599 C   0  0  0  0  0  0
   74.7624   52.7581   43.7471 N   0  0  0  0  0  0
   75.7023   52.2182   44.5484 C   0  0  0  0  0  0
   75.6665   52.3767   45.7684 O   0  0  0  0  0  0
   76.7303   51.4438   43.8559 C   0  0  0  0  0  0
   77.7066   50.8711   44.7216 C   0  0  0  0  0  0
   78.4723   50.4247   45.4646 N   0  0  0  0  0  0
   73.5301   53.2752   41.6754 C   0  0  2  0  0  0
   73.5536   53.2080   40.1403 N   0  0  0  0  0  0
   74.1629   51.9154   39.6394 C   0  0  0  0  0  0
   75.5862   51.7783   40.1806 C   0  0  0  0  0  0
   72.6664   52.6907   41.9933 H   0  0  0  0  0  0
   74.0228   53.3179   44.1572 H   0  0  0  0  0  0
   78.2659   50.0552   41.5379 R   0  0  0  0  0  0
   73.5564   51.0654   39.9852 H   0  0  0  0  0  0
   74.1880   51.9241   38.5497 H   0  0  0  0  0  0
   76.5095   51.6308   39.6012 H   0  0  0  0  0  0
   75.7161   52.8584   40.1126 H   0  0  0  0  0  0
   72.6100   53.2702   39.7856 H   0  0  0  0  0  0
   73.3463   54.6872   42.1472 C   0  0  2  0  0  0
   72.0802   55.3293   41.5933 C   0  0  0  0  0  0
   72.4341   56.7978   41.6395 C   0  0  2  0  0  0
   72.3412   57.2863   42.9267 O   0  0  0  0  0  0
   71.5632   57.6472   40.7619 C   0  0  0  0  0  0
   70.2583   57.5803   41.2060 O   0  0  0  0  0  0
   73.8882   56.7808   41.1841 C   0  0  0  0  0  0
   74.6634   57.9625   41.6867 C   0  0  0  0  0  0
   73.9831   56.7713   39.6871 C   0  0  0  0  0  0
   74.4021   55.5450   41.6963 O   0  0  0  0  0  0
   73.3346   54.6765   43.2390 H   0  0  0  0  0  0
   71.9079   55.0024   40.5656 H   0  0  0  0  0  0
   71.1922   55.0799   42.1765 H   0  0  0  0  0  0
   71.9073   58.6807   40.7997 H   0  0  0  0  0  0
   71.6168   57.2836   39.7358 H   0  0  0  0  0  0
   74.2395   58.8776   41.2734 H   0  0  0  0  0  0
   74.6095   57.9962   42.7749 H   0  0  0  0  0  0
   75.7047   57.8723   41.3772 H   0  0  0  0  0  0
   73.5933   57.7096   39.2924 H   0  0  0  0  0  0
   75.0256   56.6573   39.3898 H   0  0  0  0  0  0
   73.3994   55.9403   39.2913 H   0  0  0  0  0  0
   72.0622   56.6157   43.6141 H   0  0  0  0  0  0
   69.6035   58.1197   40.6766 H   0  0  0  0  0  0
  1  2  1  0  0  0
  1  7  2  0  0  0
  1 16  1  0  0  0
  2  3  2  0  0  0
  2 13  1  0  0  0
  3  4  1  0  0  0
  3 10  1  0  0  0
  4  5  1  0  0  0
  4 15  1  0  0  0
  5  6  2  0  0  0
  5  7  1  0  0  0
  7  8  1  0  0  0
  8  9  3  0  0  0
 10 11  1  0  0  0
 10 14  1  0  0  0
 10 22  1  0  0  0
 11 12  1  0  0  0
 11 21  1  0  0  0
 12 13  1  0  0  0
 12 17  1  0  0  0
 12 18  1  0  0  0
 13 19  1  0  0  0
 13 20  1  0  0  0
 22 23  1  0  0  0
 22 31  1  0  0  0
 22 32  1  0  0  0
 23 24  1  0  0  0
 23 33  1  0  0  0
 23 34  1  0  0  0
 24 25  1  0  0  0
 24 26  1  0  0  0
 24 28  1  0  0  0
 25 43  1  0  0  0
 26 27  1  0  0  0
 26 35  1  0  0  0
 26 36  1  0  0  0
 27 44  1  0  0  0
 28 29  1  0  0  0
 28 30  1  0  0  0
 28 31  1  0  0  0
 29 37  1  0  0  0
 29 38  1  0  0  0
 29 39  1  0  0  0
 30 40  1  0  0  0
 30 41  1  0  0  0
 30 42  1  0  0  0
M  END
> <b_m_subgroup_collapsed>
1

> <s_m_subgroup_title>
enumerate_142-out

> <s_m_subgroupid>
enumerate_142-out

$$$$
