28967-3
                    3D
 Schrodinger Suite 2024-3.
 46 50  0  0  1  0            999 V2000
   76.7152   51.2564   42.5117 C   0  0  0  0  0  0
   75.6469   51.8672   41.7091 C   0  0  0  0  0  0
   74.7156   52.5958   42.3599 C   0  0  0  0  0  0
   74.7624   52.7581   43.7471 N   0  0  0  0  0  0
   75.7023   52.2182   44.5484 C   0  0  0  0  0  0
   75.6665   52.3767   45.7684 O   0  0  0  0  0  0
   76.7303   51.4438   43.8559 C   0  0  0  0  0  0
   77.7066   50.8711   44.7216 C   0  0  0  0  0  0
   78.4723   50.4247   45.4646 N   0  0  0  0  0  0
   73.5301   53.2752   41.6754 C   0  0  2  0  0  0
   73.5536   53.2080   40.1403 N   0  0  0  0  0  0
   74.1629   51.9154   39.6394 C   0  0  0  0  0  0
   75.5862   51.7783   40.1806 C   0  0  0  0  0  0
   72.6664   52.6907   41.9933 H   0  0  0  0  0  0
   74.0228   53.3179   44.1572 H   0  0  0  0  0  0
   78.2659   50.0552   41.5379 R   0  0  0  0  0  0
   73.5564   51.0654   39.9852 H   0  0  0  0  0  0
   74.1880   51.9241   38.5497 H   0  0  0  0  0  0
   76.5095   51.6308   39.6012 H   0  0  0  0  0  0
   75.7161   52.8584   40.1126 H   0  0  0  0  0  0
   72.6100   53.2702   39.7856 H   0  0  0  0  0  0
   73.3463   54.6872   42.1472 C   0  0  0  0  0  0
   72.0917   54.7822   42.9638 C   0  0  2  0  0  0
   70.8224   54.4953   42.1398 C   0  0  2  0  0  0
   70.8645   55.3304   40.8461 C   0  0  0  0  0  0
   70.6466   56.7663   41.3640 C   0  0  0  0  0  0
   70.5054   56.5586   42.8830 C   0  0  1  0  0  0
   69.7583   55.2317   42.9485 C   0  0  0  0  0  0
   71.8622   56.1993   43.4658 C   0  0  0  0  0  0
   72.9800   57.1927   43.6795 C   0  0  0  0  0  0
   72.2647   56.5950   44.8683 C   0  0  0  0  0  0
   74.2003   54.9803   42.7578 H   0  0  0  0  0  0
   73.2705   55.3510   41.2860 H   0  0  0  0  0  0
   72.1770   54.0970   43.8082 H   0  0  0  0  0  0
   70.6318   53.4341   41.9756 H   0  0  0  0  0  0
   71.8085   55.2189   40.3110 H   0  0  0  0  0  0
   70.0605   55.0399   40.1684 H   0  0  0  0  0  0
   71.4769   57.4286   41.1156 H   0  0  0  0  0  0
   69.7371   57.1955   40.9418 H   0  0  0  0  0  0
   70.0279   57.3876   43.4070 H   0  0  0  0  0  0
   68.7805   55.2569   42.4638 H   0  0  0  0  0  0
   69.6462   54.8502   43.9651 H   0  0  0  0  0  0
   73.9969   56.8588   43.4833 H   0  0  0  0  0  0
   72.7781   58.2356   43.4432 H   0  0  0  0  0  0
   71.5903   57.2423   45.4252 H   0  0  0  0  0  0
   72.8108   55.8681   45.4664 H   0  0  0  0  0  0
  1  2  1  0  0  0
  1  7  2  0  0  0
  1 16  1  0  0  0
  2  3  2  0  0  0
  2 13  1  0  0  0
  3  4  1  0  0  0
  3 10  1  0  0  0
  4  5  1  0  0  0
  4 15  1  0  0  0
  5  6  2  0  0  0
  5  7  1  0  0  0
  7  8  1  0  0  0
  8  9  3  0  0  0
 10 11  1  0  0  0
 10 14  1  0  0  0
 10 22  1  0  0  0
 11 12  1  0  0  0
 11 21  1  0  0  0
 12 13  1  0  0  0
 12 17  1  0  0  0
 12 18  1  0  0  0
 13 19  1  0  0  0
 13 20  1  0  0  0
 22 23  1  0  0  0
 22 32  1  0  0  0
 22 33  1  0  0  0
 23 24  1  0  0  0
 23 29  1  0  0  0
 23 34  1  0  0  0
 24 25  1  0  0  0
 24 28  1  0  0  0
 24 35  1  0  0  0
 25 26  1  0  0  0
 25 36  1  0  0  0
 25 37  1  0  0  0
 26 27  1  0  0  0
 26 38  1  0  0  0
 26 39  1  0  0  0
 27 28  1  0  0  0
 27 29  1  0  0  0
 27 40  1  0  0  0
 28 41  1  0  0  0
 28 42  1  0  0  0
 29 30  1  0  0  0
 29 31  1  0  0  0
 30 31  1  0  0  0
 30 43  1  0  0  0
 30 44  1  0  0  0
 31 45  1  0  0  0
 31 46  1  0  0  0
M  END
> <b_m_subgroup_collapsed>
1

> <s_m_subgroup_title>
enumerate_141-out

> <s_m_subgroupid>
enumerate_141-out

$$$$
