28898-1
                    3D
 Schrodinger Suite 2024-3.
 42 45  0  0  1  0            999 V2000
   76.7152   51.2564   42.5117 C   0  0  0  0  0  0
   75.6469   51.8672   41.7091 C   0  0  0  0  0  0
   74.7156   52.5958   42.3599 C   0  0  0  0  0  0
   74.7624   52.7581   43.7471 N   0  0  0  0  0  0
   75.7023   52.2182   44.5484 C   0  0  0  0  0  0
   75.6665   52.3767   45.7684 O   0  0  0  0  0  0
   76.7303   51.4438   43.8559 C   0  0  0  0  0  0
   77.7066   50.8711   44.7216 C   0  0  0  0  0  0
   78.4723   50.4247   45.4646 N   0  0  0  0  0  0
   73.5301   53.2752   41.6754 C   0  0  2  0  0  0
   73.5536   53.2080   40.1403 N   0  0  0  0  0  0
   74.1629   51.9154   39.6394 C   0  0  0  0  0  0
   75.5862   51.7783   40.1806 C   0  0  0  0  0  0
   72.6664   52.6907   41.9933 H   0  0  0  0  0  0
   74.0228   53.3179   44.1572 H   0  0  0  0  0  0
   78.2659   50.0552   41.5379 R   0  0  0  0  0  0
   73.5564   51.0654   39.9852 H   0  0  0  0  0  0
   74.1880   51.9241   38.5497 H   0  0  0  0  0  0
   76.5095   51.6308   39.6012 H   0  0  0  0  0  0
   75.7161   52.8584   40.1126 H   0  0  0  0  0  0
   72.6100   53.2702   39.7856 H   0  0  0  0  0  0
   73.3463   54.6872   42.1472 C   0  0  1  0  0  0
   72.0808   54.8956   42.9993 C   0  0  0  0  0  0
   71.8591   56.4180   42.9115 C   0  0  0  0  0  0
   73.0270   56.8803   42.0207 C   0  0  1  0  0  0
   72.8096   58.2238   41.3900 C   0  0  0  0  0  0
   72.6523   59.1307   42.3528 F   0  0  0  0  0  0
   74.3428   56.7740   42.8136 C   0  0  0  0  0  0
   74.5643   55.2516   42.9016 C   0  0  0  0  0  0
   73.1550   55.7190   41.0415 C   0  0  0  0  0  0
   71.2319   54.3590   42.5732 H   0  0  0  0  0  0
   72.2110   54.5515   44.0261 H   0  0  0  0  0  0
   70.8999   56.6396   42.4416 H   0  0  0  0  0  0
   71.8692   56.8983   43.8907 H   0  0  0  0  0  0
   73.6743   58.4981   40.7858 H   0  0  0  0  0  0
   71.9116   58.2066   40.7724 H   0  0  0  0  0  0
   74.2740   57.2431   43.7959 H   0  0  0  0  0  0
   75.1621   57.2503   42.2734 H   0  0  0  0  0  0
   74.6151   54.8962   43.9317 H   0  0  0  0  0  0
   75.4942   54.9697   42.4056 H   0  0  0  0  0  0
   74.0157   55.8059   40.3756 H   0  0  0  0  0  0
   72.2561   55.5537   40.4445 H   0  0  0  0  0  0
  1  2  1  0  0  0
  1  7  2  0  0  0
  1 16  1  0  0  0
  2  3  2  0  0  0
  2 13  1  0  0  0
  3  4  1  0  0  0
  3 10  1  0  0  0
  4  5  1  0  0  0
  4 15  1  0  0  0
  5  6  2  0  0  0
  5  7  1  0  0  0
  7  8  1  0  0  0
  8  9  3  0  0  0
 10 11  1  0  0  0
 10 14  1  0  0  0
 10 22  1  0  0  0
 11 12  1  0  0  0
 11 21  1  0  0  0
 12 13  1  0  0  0
 12 17  1  0  0  0
 12 18  1  0  0  0
 13 19  1  0  0  0
 13 20  1  0  0  0
 22 23  1  0  0  0
 22 29  1  0  0  0
 22 30  1  0  0  0
 23 24  1  0  0  0
 23 31  1  0  0  0
 23 32  1  0  0  0
 24 25  1  0  0  0
 24 33  1  0  0  0
 24 34  1  0  0  0
 25 26  1  0  0  0
 25 28  1  0  0  0
 25 30  1  0  0  0
 26 27  1  0  0  0
 26 35  1  0  0  0
 26 36  1  0  0  0
 28 29  1  0  0  0
 28 37  1  0  0  0
 28 38  1  0  0  0
 29 39  1  0  0  0
 29 40  1  0  0  0
 30 41  1  0  0  0
 30 42  1  0  0  0
M  END
> <b_m_subgroup_collapsed>
1

> <s_m_subgroup_title>
enumerate_141-out

> <s_m_subgroupid>
enumerate_141-out

$$$$
