1710-1
                    3D
 Schrodinger Suite 2024-3.
 46 50  0  0  1  0            999 V2000
   76.7152   51.2564   42.5117 C   0  0  0  0  0  0
   75.6469   51.8672   41.7091 C   0  0  0  0  0  0
   74.7156   52.5958   42.3599 C   0  0  0  0  0  0
   74.7624   52.7581   43.7471 N   0  0  0  0  0  0
   75.7023   52.2182   44.5484 C   0  0  0  0  0  0
   75.6665   52.3767   45.7684 O   0  0  0  0  0  0
   76.7303   51.4438   43.8559 C   0  0  0  0  0  0
   77.7066   50.8711   44.7216 C   0  0  0  0  0  0
   78.4723   50.4247   45.4646 N   0  0  0  0  0  0
   73.5301   53.2752   41.6754 C   0  0  2  0  0  0
   73.5536   53.2080   40.1403 N   0  0  0  0  0  0
   74.1629   51.9154   39.6394 C   0  0  0  0  0  0
   75.5862   51.7783   40.1806 C   0  0  0  0  0  0
   72.6664   52.6907   41.9933 H   0  0  0  0  0  0
   74.0228   53.3179   44.1572 H   0  0  0  0  0  0
   78.2659   50.0552   41.5379 R   0  0  0  0  0  0
   73.5564   51.0654   39.9852 H   0  0  0  0  0  0
   74.1880   51.9241   38.5497 H   0  0  0  0  0  0
   76.5095   51.6308   39.6012 H   0  0  0  0  0  0
   75.7161   52.8584   40.1126 H   0  0  0  0  0  0
   72.6100   53.2702   39.7856 H   0  0  0  0  0  0
   73.3463   54.6872   42.1472 C   0  0  0  0  0  0
   72.0543   54.7839   42.9879 C   0  0  0  0  0  0
   71.8656   56.2380   43.4730 C   0  0  2  0  0  0
   71.7573   57.1789   42.2530 C   0  0  0  0  0  0
   73.0496   57.0805   41.4130 C   0  0  1  0  0  0
   74.2596   57.4969   42.2779 C   0  0  0  0  0  0
   74.3663   56.5556   43.4977 C   0  0  1  0  0  0
   73.0749   56.6536   44.3391 C   0  0  0  0  0  0
   74.5568   55.1019   43.0123 C   0  0  0  0  0  0
   73.2389   55.6270   40.9263 C   0  0  0  0  0  0
   71.1938   54.4682   42.3964 H   0  0  0  0  0  0
   72.1062   54.1051   43.8401 H   0  0  0  0  0  0
   70.9532   56.3070   44.0666 H   0  0  0  0  0  0
   71.5975   58.2068   42.5813 H   0  0  0  0  0  0
   70.8909   56.9128   41.6460 H   0  0  0  0  0  0
   72.9738   57.7448   40.5512 H   0  0  0  0  0  0
   75.1767   57.4576   41.6888 H   0  0  0  0  0  0
   74.1507   58.5311   42.6071 H   0  0  0  0  0  0
   75.2207   56.8491   44.1089 H   0  0  0  0  0  0
   72.9420   57.6705   44.7106 H   0  0  0  0  0  0
   73.1475   56.0129   45.2189 H   0  0  0  0  0  0
   74.6604   54.4293   43.8648 H   0  0  0  0  0  0
   75.4799   55.0132   42.4380 H   0  0  0  0  0  0
   74.1348   55.5489   40.3090 H   0  0  0  0  0  0
   72.4028   55.3290   40.2923 H   0  0  0  0  0  0
  1  2  1  0  0  0
  1  7  2  0  0  0
  1 16  1  0  0  0
  2  3  2  0  0  0
  2 13  1  0  0  0
  3  4  1  0  0  0
  3 10  1  0  0  0
  4  5  1  0  0  0
  4 15  1  0  0  0
  5  6  2  0  0  0
  5  7  1  0  0  0
  7  8  1  0  0  0
  8  9  3  0  0  0
 10 11  1  0  0  0
 10 14  1  0  0  0
 10 22  1  0  0  0
 11 12  1  0  0  0
 11 21  1  0  0  0
 12 13  1  0  0  0
 12 17  1  0  0  0
 12 18  1  0  0  0
 13 19  1  0  0  0
 13 20  1  0  0  0
 22 23  1  0  0  0
 22 30  1  0  0  0
 22 31  1  0  0  0
 23 24  1  0  0  0
 23 32  1  0  0  0
 23 33  1  0  0  0
 24 25  1  0  0  0
 24 29  1  0  0  0
 24 34  1  0  0  0
 25 26  1  0  0  0
 25 35  1  0  0  0
 25 36  1  0  0  0
 26 27  1  0  0  0
 26 31  1  0  0  0
 26 37  1  0  0  0
 27 28  1  0  0  0
 27 38  1  0  0  0
 27 39  1  0  0  0
 28 29  1  0  0  0
 28 30  1  0  0  0
 28 40  1  0  0  0
 29 41  1  0  0  0
 29 42  1  0  0  0
 30 43  1  0  0  0
 30 44  1  0  0  0
 31 45  1  0  0  0
 31 46  1  0  0  0
M  END
> <b_m_subgroup_collapsed>
1

> <s_m_subgroup_title>
enumerate_141-out

> <s_m_subgroupid>
enumerate_141-out

$$$$
