39328-3
                    3D
 Schrodinger Suite 2024-3.
 45 48  0  0  1  0            999 V2000
   76.7152   51.2564   42.5117 C   0  0  0  0  0  0
   75.6469   51.8672   41.7091 C   0  0  0  0  0  0
   74.7156   52.5958   42.3599 C   0  0  0  0  0  0
   74.7624   52.7581   43.7471 N   0  0  0  0  0  0
   75.7023   52.2182   44.5484 C   0  0  0  0  0  0
   75.6665   52.3767   45.7684 O   0  0  0  0  0  0
   76.7303   51.4438   43.8559 C   0  0  0  0  0  0
   77.7066   50.8711   44.7216 C   0  0  0  0  0  0
   78.4723   50.4247   45.4646 N   0  0  0  0  0  0
   73.5301   53.2752   41.6754 C   0  0  2  0  0  0
   73.5536   53.2080   40.1403 N   0  0  0  0  0  0
   74.1629   51.9154   39.6394 C   0  0  0  0  0  0
   75.5862   51.7783   40.1806 C   0  0  0  0  0  0
   72.6664   52.6907   41.9933 H   0  0  0  0  0  0
   74.0228   53.3179   44.1572 H   0  0  0  0  0  0
   78.2659   50.0552   41.5379 R   0  0  0  0  0  0
   73.5564   51.0654   39.9852 H   0  0  0  0  0  0
   74.1880   51.9241   38.5497 H   0  0  0  0  0  0
   76.5095   51.6308   39.6012 H   0  0  0  0  0  0
   75.7161   52.8584   40.1126 H   0  0  0  0  0  0
   72.6100   53.2702   39.7856 H   0  0  0  0  0  0
   73.3463   54.6872   42.1472 C   0  0  2  0  0  0
   72.0629   55.3007   41.5576 C   0  0  1  0  0  0
   71.7818   56.6484   42.2474 C   0  0  0  0  0  0
   72.8865   57.5588   41.6772 C   0  0  0  0  0  0
   73.6543   56.6122   40.7361 C   0  0  2  0  0  0
   72.5319   55.7454   40.1770 C   0  0  0  0  0  0
   74.4511   55.5975   41.5767 C   0  0  0  0  0  0
   75.2615   56.2590   42.6517 C   0  0  0  0  0  0
   75.3911   54.8089   40.7138 C   0  0  0  0  0  0
   73.3372   54.6756   43.2379 H   0  0  0  0  0  0
   71.2102   54.6204   41.5600 H   0  0  0  0  0  0
   70.7950   57.0262   41.9761 H   0  0  0  0  0  0
   71.8225   56.5740   43.3349 H   0  0  0  0  0  0
   73.5254   57.9775   42.4558 H   0  0  0  0  0  0
   72.4499   58.3900   41.1217 H   0  0  0  0  0  0
   74.2557   57.1303   39.9878 H   0  0  0  0  0  0
   71.7798   56.3121   39.6249 H   0  0  0  0  0  0
   72.8884   54.9227   39.5542 H   0  0  0  0  0  0
   76.0253   56.8886   42.1953 H   0  0  0  0  0  0
   74.6090   56.8720   43.2733 H   0  0  0  0  0  0
   75.7392   55.4969   43.2675 H   0  0  0  0  0  0
   76.1638   55.4694   40.3204 H   0  0  0  0  0  0
   75.8543   54.0207   41.3072 H   0  0  0  0  0  0
   74.8381   54.3637   39.8867 H   0  0  0  0  0  0
  1  2  1  0  0  0
  1  7  2  0  0  0
  1 16  1  0  0  0
  2  3  2  0  0  0
  2 13  1  0  0  0
  3  4  1  0  0  0
  3 10  1  0  0  0
  4  5  1  0  0  0
  4 15  1  0  0  0
  5  6  2  0  0  0
  5  7  1  0  0  0
  7  8  1  0  0  0
  8  9  3  0  0  0
 10 11  1  0  0  0
 10 14  1  0  0  0
 10 22  1  0  0  0
 11 12  1  0  0  0
 11 21  1  0  0  0
 12 13  1  0  0  0
 12 17  1  0  0  0
 12 18  1  0  0  0
 13 19  1  0  0  0
 13 20  1  0  0  0
 22 23  1  0  0  0
 22 28  1  0  0  0
 22 31  1  0  0  0
 23 24  1  0  0  0
 23 27  1  0  0  0
 23 32  1  0  0  0
 24 25  1  0  0  0
 24 33  1  0  0  0
 24 34  1  0  0  0
 25 26  1  0  0  0
 25 35  1  0  0  0
 25 36  1  0  0  0
 26 27  1  0  0  0
 26 28  1  0  0  0
 26 37  1  0  0  0
 27 38  1  0  0  0
 27 39  1  0  0  0
 28 29  1  0  0  0
 28 30  1  0  0  0
 29 40  1  0  0  0
 29 41  1  0  0  0
 29 42  1  0  0  0
 30 43  1  0  0  0
 30 44  1  0  0  0
 30 45  1  0  0  0
M  END
> <b_m_subgroup_collapsed>
1

> <s_m_subgroup_title>
enumerate_141-out

> <s_m_subgroupid>
enumerate_141-out

$$$$
