11262-4
                    3D
 Schrodinger Suite 2024-3.
 42 44  0  0  1  0            999 V2000
   76.7152   51.2564   42.5117 C   0  0  0  0  0  0
   75.6469   51.8672   41.7091 C   0  0  0  0  0  0
   74.7156   52.5958   42.3599 C   0  0  0  0  0  0
   74.7624   52.7581   43.7471 N   0  0  0  0  0  0
   75.7023   52.2182   44.5484 C   0  0  0  0  0  0
   75.6665   52.3767   45.7684 O   0  0  0  0  0  0
   76.7303   51.4438   43.8559 C   0  0  0  0  0  0
   77.7066   50.8711   44.7216 C   0  0  0  0  0  0
   78.4723   50.4247   45.4646 N   0  0  0  0  0  0
   73.5301   53.2752   41.6754 C   0  0  2  0  0  0
   73.5536   53.2080   40.1403 N   0  0  0  0  0  0
   74.1629   51.9154   39.6394 C   0  0  0  0  0  0
   75.5862   51.7783   40.1806 C   0  0  0  0  0  0
   72.6664   52.6907   41.9933 H   0  0  0  0  0  0
   74.0228   53.3179   44.1572 H   0  0  0  0  0  0
   78.2659   50.0552   41.5379 R   0  0  0  0  0  0
   73.5564   51.0654   39.9852 H   0  0  0  0  0  0
   74.1880   51.9241   38.5497 H   0  0  0  0  0  0
   76.5095   51.6308   39.6012 H   0  0  0  0  0  0
   75.7161   52.8584   40.1126 H   0  0  0  0  0  0
   72.6100   53.2702   39.7856 H   0  0  0  0  0  0
   73.3463   54.6872   42.1472 C   0  0  1  0  0  0
   73.2629   55.6521   40.9525 C   0  0  0  0  0  0
   72.9127   57.0819   41.4075 C   0  0  2  0  0  0
   74.0325   57.6790   42.2072 C   0  0  0  0  0  0
   71.7071   57.0658   42.1780 O   0  0  0  0  0  0
   71.7846   56.2791   43.3705 C   0  0  1  0  0  0
   70.4830   56.3795   44.1092 C   0  0  0  0  0  0
   72.0799   54.8102   43.0111 C   0  0  0  0  0  0
   74.2260   54.9244   42.7497 H   0  0  0  0  0  0
   74.2036   55.6552   40.4000 H   0  0  0  0  0  0
   72.5005   55.3049   40.2530 H   0  0  0  0  0  0
   72.7729   57.7291   40.5405 H   0  0  0  0  0  0
   74.9434   57.6849   41.6086 H   0  0  0  0  0  0
   73.7748   58.7006   42.4867 H   0  0  0  0  0  0
   74.1929   57.0855   43.1072 H   0  0  0  0  0  0
   72.5508   56.6789   44.0384 H   0  0  0  0  0  0
   70.5348   55.7822   45.0195 H   0  0  0  0  0  0
   70.2916   57.4208   44.3683 H   0  0  0  0  0  0
   69.6766   56.0084   43.4766 H   0  0  0  0  0  0
   71.2259   54.3979   42.4712 H   0  0  0  0  0  0
   72.1807   54.2157   43.9203 H   0  0  0  0  0  0
  1  2  1  0  0  0
  1  7  2  0  0  0
  1 16  1  0  0  0
  2  3  2  0  0  0
  2 13  1  0  0  0
  3  4  1  0  0  0
  3 10  1  0  0  0
  4  5  1  0  0  0
  4 15  1  0  0  0
  5  6  2  0  0  0
  5  7  1  0  0  0
  7  8  1  0  0  0
  8  9  3  0  0  0
 10 11  1  0  0  0
 10 14  1  0  0  0
 10 22  1  0  0  0
 11 12  1  0  0  0
 11 21  1  0  0  0
 12 13  1  0  0  0
 12 17  1  0  0  0
 12 18  1  0  0  0
 13 19  1  0  0  0
 13 20  1  0  0  0
 22 23  1  0  0  0
 22 29  1  0  0  0
 22 30  1  0  0  0
 23 24  1  0  0  0
 23 31  1  0  0  0
 23 32  1  0  0  0
 24 25  1  0  0  0
 24 26  1  0  0  0
 24 33  1  0  0  0
 25 34  1  0  0  0
 25 35  1  0  0  0
 25 36  1  0  0  0
 26 27  1  0  0  0
 27 28  1  0  0  0
 27 29  1  0  0  0
 27 37  1  0  0  0
 28 38  1  0  0  0
 28 39  1  0  0  0
 28 40  1  0  0  0
 29 41  1  0  0  0
 29 42  1  0  0  0
M  END
> <b_m_subgroup_collapsed>
1

> <s_m_subgroup_title>
enumerate_141-out

> <s_m_subgroupid>
enumerate_141-out

$$$$
