20057-1
                    3D
 Schrodinger Suite 2024-3.
 42 45  0  0  1  0            999 V2000
   76.7152   51.2564   42.5117 C   0  0  0  0  0  0
   75.6469   51.8672   41.7091 C   0  0  0  0  0  0
   74.7156   52.5958   42.3599 C   0  0  0  0  0  0
   74.7624   52.7581   43.7471 N   0  0  0  0  0  0
   75.7023   52.2182   44.5484 C   0  0  0  0  0  0
   75.6665   52.3767   45.7684 O   0  0  0  0  0  0
   76.7303   51.4438   43.8559 C   0  0  0  0  0  0
   77.7066   50.8711   44.7216 C   0  0  0  0  0  0
   78.4723   50.4247   45.4646 N   0  0  0  0  0  0
   73.5301   53.2752   41.6754 C   0  0  2  0  0  0
   73.5536   53.2080   40.1403 N   0  0  0  0  0  0
   74.1629   51.9154   39.6394 C   0  0  0  0  0  0
   75.5862   51.7783   40.1806 C   0  0  0  0  0  0
   72.6664   52.6907   41.9933 H   0  0  0  0  0  0
   74.0228   53.3179   44.1572 H   0  0  0  0  0  0
   78.2659   50.0552   41.5379 R   0  0  0  0  0  0
   73.5564   51.0654   39.9852 H   0  0  0  0  0  0
   74.1880   51.9241   38.5497 H   0  0  0  0  0  0
   76.5095   51.6308   39.6012 H   0  0  0  0  0  0
   75.7161   52.8584   40.1126 H   0  0  0  0  0  0
   72.6100   53.2702   39.7856 H   0  0  0  0  0  0
   73.3463   54.6872   42.1472 C   0  0  0  0  0  0
   74.5501   55.1336   43.0215 C   0  0  0  0  0  0
   74.3591   56.6007   43.5117 C   0  0  0  0  0  0
   73.0212   57.1855   42.9820 C   0  0  0  0  0  0
   71.8617   56.2838   43.4874 C   0  0  0  0  0  0
   72.0526   54.8167   42.9971 C   0  0  0  0  0  0
   73.0439   57.1251   41.4300 C   0  0  0  0  0  0
   73.2349   55.6580   40.9398 C   0  0  0  0  0  0
   74.6603   54.4636   43.8761 H   0  0  0  0  0  0
   75.4779   55.0454   42.4533 H   0  0  0  0  0  0
   74.3774   56.6374   44.6025 H   0  0  0  0  0  0
   75.1950   57.2192   43.1797 H   0  0  0  0  0  0
   72.8874   58.2134   43.3255 H   0  0  0  0  0  0
   71.8139   56.3121   44.5775 H   0  0  0  0  0  0
   70.9044   56.6748   43.1379 H   0  0  0  0  0  0
   71.1874   54.5009   42.4115 H   0  0  0  0  0  0
   72.0969   54.1383   43.8511 H   0  0  0  0  0  0
   72.1179   57.5383   41.0261 H   0  0  0  0  0  0
   73.8450   57.7575   41.0430 H   0  0  0  0  0  0
   74.1279   55.5837   40.3166 H   0  0  0  0  0  0
   72.4009   55.3645   40.2998 H   0  0  0  0  0  0
  1  2  1  0  0  0
  1  7  2  0  0  0
  1 16  1  0  0  0
  2  3  2  0  0  0
  2 13  1  0  0  0
  3  4  1  0  0  0
  3 10  1  0  0  0
  4  5  1  0  0  0
  4 15  1  0  0  0
  5  6  2  0  0  0
  5  7  1  0  0  0
  7  8  1  0  0  0
  8  9  3  0  0  0
 10 11  1  0  0  0
 10 14  1  0  0  0
 10 22  1  0  0  0
 11 12  1  0  0  0
 11 21  1  0  0  0
 12 13  1  0  0  0
 12 17  1  0  0  0
 12 18  1  0  0  0
 13 19  1  0  0  0
 13 20  1  0  0  0
 22 23  1  0  0  0
 22 27  1  0  0  0
 22 29  1  0  0  0
 23 24  1  0  0  0
 23 30  1  0  0  0
 23 31  1  0  0  0
 24 25  1  0  0  0
 24 32  1  0  0  0
 24 33  1  0  0  0
 25 26  1  0  0  0
 25 28  1  0  0  0
 25 34  1  0  0  0
 26 27  1  0  0  0
 26 35  1  0  0  0
 26 36  1  0  0  0
 27 37  1  0  0  0
 27 38  1  0  0  0
 28 29  1  0  0  0
 28 39  1  0  0  0
 28 40  1  0  0  0
 29 41  1  0  0  0
 29 42  1  0  0  0
M  END
> <b_m_subgroup_collapsed>
1

> <s_m_subgroup_title>
enumerate_141-out

> <s_m_subgroupid>
enumerate_141-out

$$$$
