19169-3
                    3D
 Schrodinger Suite 2024-3.
 43 46  0  0  1  0            999 V2000
   76.7152   51.2564   42.5117 C   0  0  0  0  0  0
   75.6469   51.8672   41.7091 C   0  0  0  0  0  0
   74.7156   52.5958   42.3599 C   0  0  0  0  0  0
   74.7624   52.7581   43.7471 N   0  0  0  0  0  0
   75.7023   52.2182   44.5484 C   0  0  0  0  0  0
   75.6665   52.3767   45.7684 O   0  0  0  0  0  0
   76.7303   51.4438   43.8559 C   0  0  0  0  0  0
   77.7066   50.8711   44.7216 C   0  0  0  0  0  0
   78.4723   50.4247   45.4646 N   0  0  0  0  0  0
   73.5301   53.2752   41.6754 C   0  0  2  0  0  0
   73.5536   53.2080   40.1403 N   0  0  0  0  0  0
   74.1629   51.9154   39.6394 C   0  0  0  0  0  0
   75.5862   51.7783   40.1806 C   0  0  0  0  0  0
   72.6664   52.6907   41.9933 H   0  0  0  0  0  0
   74.0228   53.3179   44.1572 H   0  0  0  0  0  0
   78.2659   50.0552   41.5379 R   0  0  0  0  0  0
   73.5564   51.0654   39.9852 H   0  0  0  0  0  0
   74.1880   51.9241   38.5497 H   0  0  0  0  0  0
   76.5095   51.6308   39.6012 H   0  0  0  0  0  0
   75.7161   52.8584   40.1126 H   0  0  0  0  0  0
   72.6100   53.2702   39.7856 H   0  0  0  0  0  0
   73.3463   54.6872   42.1472 C   0  0  2  0  0  0
   72.0233   54.8401   42.9200 C   0  0  1  0  0  0
   71.9849   56.2261   43.5899 C   0  0  0  0  0  0
   71.7899   57.1767   42.3929 C   0  0  0  0  0  0
   71.7436   56.2096   41.1955 C   0  0  2  0  0  0
   71.0155   55.0090   41.7887 C   0  0  0  0  0  0
   73.1523   55.6380   40.9502 C   0  0  1  0  0  0
   74.2005   56.7094   40.8928 C   0  0  0  0  0  0
   75.4420   56.1300   40.7272 O   0  0  0  0  0  0
   74.2137   54.9513   42.7536 H   0  0  0  0  0  0
   71.8171   54.0162   43.6045 H   0  0  0  0  0  0
   71.1441   56.3015   44.2809 H   0  0  0  0  0  0
   72.8963   56.4415   44.1494 H   0  0  0  0  0  0
   72.5947   57.9076   42.3048 H   0  0  0  0  0  0
   70.8512   57.7245   42.4869 H   0  0  0  0  0  0
   71.2822   56.6367   40.3041 H   0  0  0  0  0  0
   70.0073   55.2415   42.1368 H   0  0  0  0  0  0
   70.9721   54.1513   41.1147 H   0  0  0  0  0  0
   73.1895   55.0846   40.0108 H   0  0  0  0  0  0
   73.9950   57.3742   40.0538 H   0  0  0  0  0  0
   74.1872   57.2809   41.8209 H   0  0  0  0  0  0
   76.2056   56.7737   40.6781 H   0  0  0  0  0  0
  1  2  1  0  0  0
  1  7  2  0  0  0
  1 16  1  0  0  0
  2  3  2  0  0  0
  2 13  1  0  0  0
  3  4  1  0  0  0
  3 10  1  0  0  0
  4  5  1  0  0  0
  4 15  1  0  0  0
  5  6  2  0  0  0
  5  7  1  0  0  0
  7  8  1  0  0  0
  8  9  3  0  0  0
 10 11  1  0  0  0
 10 14  1  0  0  0
 10 22  1  0  0  0
 11 12  1  0  0  0
 11 21  1  0  0  0
 12 13  1  0  0  0
 12 17  1  0  0  0
 12 18  1  0  0  0
 13 19  1  0  0  0
 13 20  1  0  0  0
 22 23  1  0  0  0
 22 28  1  0  0  0
 22 31  1  0  0  0
 23 24  1  0  0  0
 23 27  1  0  0  0
 23 32  1  0  0  0
 24 25  1  0  0  0
 24 33  1  0  0  0
 24 34  1  0  0  0
 25 26  1  0  0  0
 25 35  1  0  0  0
 25 36  1  0  0  0
 26 27  1  0  0  0
 26 28  1  0  0  0
 26 37  1  0  0  0
 27 38  1  0  0  0
 27 39  1  0  0  0
 28 29  1  0  0  0
 28 40  1  0  0  0
 29 30  1  0  0  0
 29 41  1  0  0  0
 29 42  1  0  0  0
 30 43  1  0  0  0
M  END
> <b_m_subgroup_collapsed>
1

> <s_m_subgroup_title>
enumerate_142-out

> <s_m_subgroupid>
enumerate_142-out

$$$$
