11948-1
                    3D
 Schrodinger Suite 2024-3.
 42 45  0  0  1  0            999 V2000
   76.7152   51.2564   42.5117 C   0  0  0  0  0  0
   75.6469   51.8672   41.7091 C   0  0  0  0  0  0
   74.7156   52.5958   42.3599 C   0  0  0  0  0  0
   74.7624   52.7581   43.7471 N   0  0  0  0  0  0
   75.7023   52.2182   44.5484 C   0  0  0  0  0  0
   75.6665   52.3767   45.7684 O   0  0  0  0  0  0
   76.7303   51.4438   43.8559 C   0  0  0  0  0  0
   77.7066   50.8711   44.7216 C   0  0  0  0  0  0
   78.4723   50.4247   45.4646 N   0  0  0  0  0  0
   73.5301   53.2752   41.6754 C   0  0  2  0  0  0
   73.5536   53.2080   40.1403 N   0  0  0  0  0  0
   74.1629   51.9154   39.6394 C   0  0  0  0  0  0
   75.5862   51.7783   40.1806 C   0  0  0  0  0  0
   72.6664   52.6907   41.9933 H   0  0  0  0  0  0
   74.0228   53.3179   44.1572 H   0  0  0  0  0  0
   78.2659   50.0552   41.5379 R   0  0  0  0  0  0
   73.5564   51.0654   39.9852 H   0  0  0  0  0  0
   74.1880   51.9241   38.5497 H   0  0  0  0  0  0
   76.5095   51.6308   39.6012 H   0  0  0  0  0  0
   75.7161   52.8584   40.1126 H   0  0  0  0  0  0
   72.6100   53.2702   39.7856 H   0  0  0  0  0  0
   73.3463   54.6872   42.1472 C   0  0  2  0  0  0
   72.0395   55.3062   41.6498 C   0  0  0  0  0  0
   72.2851   56.8125   41.7459 C   0  0  0  0  0  0
   73.7637   56.9855   41.3673 C   0  0  1  0  0  0
   74.5486   58.0251   42.1815 C   0  0  0  0  0  0
   75.9207   57.3852   42.3972 C   0  0  0  0  0  0
   75.6096   55.8996   42.5832 C   0  0  0  0  0  0
   74.4411   55.6288   41.6235 C   0  0  1  0  0  0
   73.3379   54.6698   43.2377 H   0  0  0  0  0  0
   71.8682   55.0242   40.6099 H   0  0  0  0  0  0
   71.1741   54.9835   42.2298 H   0  0  0  0  0  0
   71.6193   57.3866   41.1006 H   0  0  0  0  0  0
   72.1063   57.1363   42.7720 H   0  0  0  0  0  0
   73.8455   57.2149   40.3032 H   0  0  0  0  0  0
   74.6119   58.9895   41.6762 H   0  0  0  0  0  0
   74.0794   58.1936   43.1515 H   0  0  0  0  0  0
   76.5390   57.5260   41.5095 H   0  0  0  0  0  0
   76.4547   57.8124   43.2468 H   0  0  0  0  0  0
   75.3106   55.7268   43.6178 H   0  0  0  0  0  0
   76.4718   55.2633   42.3808 H   0  0  0  0  0  0
   74.8259   55.2521   40.6740 H   0  0  0  0  0  0
  1  2  1  0  0  0
  1  7  2  0  0  0
  1 16  1  0  0  0
  2  3  2  0  0  0
  2 13  1  0  0  0
  3  4  1  0  0  0
  3 10  1  0  0  0
  4  5  1  0  0  0
  4 15  1  0  0  0
  5  6  2  0  0  0
  5  7  1  0  0  0
  7  8  1  0  0  0
  8  9  3  0  0  0
 10 11  1  0  0  0
 10 14  1  0  0  0
 10 22  1  0  0  0
 11 12  1  0  0  0
 11 21  1  0  0  0
 12 13  1  0  0  0
 12 17  1  0  0  0
 12 18  1  0  0  0
 13 19  1  0  0  0
 13 20  1  0  0  0
 22 23  1  0  0  0
 22 29  1  0  0  0
 22 30  1  0  0  0
 23 24  1  0  0  0
 23 31  1  0  0  0
 23 32  1  0  0  0
 24 25  1  0  0  0
 24 33  1  0  0  0
 24 34  1  0  0  0
 25 26  1  0  0  0
 25 29  1  0  0  0
 25 35  1  0  0  0
 26 27  1  0  0  0
 26 36  1  0  0  0
 26 37  1  0  0  0
 27 28  1  0  0  0
 27 38  1  0  0  0
 27 39  1  0  0  0
 28 29  1  0  0  0
 28 40  1  0  0  0
 28 41  1  0  0  0
 29 42  1  0  0  0
M  END
> <b_m_subgroup_collapsed>
1

> <s_m_subgroup_title>
enumerate_141-out

> <s_m_subgroupid>
enumerate_141-out

$$$$
