6760-1
                    3D
 Schrodinger Suite 2024-3.
 47 51  0  0  1  0            999 V2000
   76.7152   51.2564   42.5117 C   0  0  0  0  0  0
   75.6469   51.8672   41.7091 C   0  0  0  0  0  0
   74.7156   52.5958   42.3599 C   0  0  0  0  0  0
   74.7624   52.7581   43.7471 N   0  0  0  0  0  0
   75.7023   52.2182   44.5484 C   0  0  0  0  0  0
   75.6665   52.3767   45.7684 O   0  0  0  0  0  0
   76.7303   51.4438   43.8559 C   0  0  0  0  0  0
   77.7066   50.8711   44.7216 C   0  0  0  0  0  0
   78.4723   50.4247   45.4646 N   0  0  0  0  0  0
   73.5301   53.2752   41.6754 C   0  0  2  0  0  0
   73.5536   53.2080   40.1403 N   0  0  0  0  0  0
   74.1629   51.9154   39.6394 C   0  0  0  0  0  0
   75.5862   51.7783   40.1806 C   0  0  0  0  0  0
   72.6664   52.6907   41.9933 H   0  0  0  0  0  0
   74.0228   53.3179   44.1572 H   0  0  0  0  0  0
   78.2659   50.0552   41.5379 R   0  0  0  0  0  0
   73.5564   51.0654   39.9852 H   0  0  0  0  0  0
   74.1880   51.9241   38.5497 H   0  0  0  0  0  0
   76.5095   51.6308   39.6012 H   0  0  0  0  0  0
   75.7161   52.8584   40.1126 H   0  0  0  0  0  0
   72.6100   53.2702   39.7856 H   0  0  0  0  0  0
   73.3610   54.5742   42.1095 O   0  0  0  0  0  0
   74.3450   55.4554   41.7098 C   0  0  0  0  0  0
   74.0302   56.8626   42.2631 C   0  0  0  0  0  0
   75.1319   57.8481   41.8155 C   0  0  1  0  0  0
   76.4982   57.3756   42.3589 C   0  0  0  0  0  0
   76.8115   55.9681   41.8056 C   0  0  2  0  0  0
   76.8615   56.0197   40.2628 C   0  0  0  0  0  0
   75.4950   56.4931   39.7208 C   0  0  2  0  0  0
   75.1811   57.9010   40.2727 C   0  0  0  0  0  0
   74.3932   55.5069   40.1669 C   0  0  0  0  0  0
   75.7109   54.9812   42.2530 C   0  0  0  0  0  0
   73.0552   57.1991   41.9081 H   0  0  0  0  0  0
   73.9673   56.8353   43.3518 H   0  0  0  0  0  0
   74.9101   58.8421   42.2058 H   0  0  0  0  0  0
   76.4859   57.3590   43.4494 H   0  0  0  0  0  0
   77.2822   58.0777   42.0718 H   0  0  0  0  0  0
   77.7763   55.6338   42.1890 H   0  0  0  0  0  0
   77.6531   56.6936   39.9327 H   0  0  0  0  0  0
   77.1080   55.0366   39.8596 H   0  0  0  0  0  0
   75.5297   56.5299   38.6313 H   0  0  0  0  0  0
   74.2301   58.2590   39.8762 H   0  0  0  0  0  0
   75.9384   58.6135   39.9430 H   0  0  0  0  0  0
   74.5887   54.5134   39.7613 H   0  0  0  0  0  0
   73.4259   55.8158   39.7685 H   0  0  0  0  0  0
   75.6825   54.9149   43.3414 H   0  0  0  0  0  0
   75.9338   53.9769   41.8903 H   0  0  0  0  0  0
  1  2  1  0  0  0
  1  7  2  0  0  0
  1 16  1  0  0  0
  2  3  2  0  0  0
  2 13  1  0  0  0
  3  4  1  0  0  0
  3 10  1  0  0  0
  4  5  1  0  0  0
  4 15  1  0  0  0
  5  6  2  0  0  0
  5  7  1  0  0  0
  7  8  1  0  0  0
  8  9  3  0  0  0
 10 11  1  0  0  0
 10 14  1  0  0  0
 10 22  1  0  0  0
 11 12  1  0  0  0
 11 21  1  0  0  0
 12 13  1  0  0  0
 12 17  1  0  0  0
 12 18  1  0  0  0
 13 19  1  0  0  0
 13 20  1  0  0  0
 22 23  1  0  0  0
 23 24  1  0  0  0
 23 31  1  0  0  0
 23 32  1  0  0  0
 24 25  1  0  0  0
 24 33  1  0  0  0
 24 34  1  0  0  0
 25 26  1  0  0  0
 25 30  1  0  0  0
 25 35  1  0  0  0
 26 27  1  0  0  0
 26 36  1  0  0  0
 26 37  1  0  0  0
 27 28  1  0  0  0
 27 32  1  0  0  0
 27 38  1  0  0  0
 28 29  1  0  0  0
 28 39  1  0  0  0
 28 40  1  0  0  0
 29 30  1  0  0  0
 29 31  1  0  0  0
 29 41  1  0  0  0
 30 42  1  0  0  0
 30 43  1  0  0  0
 31 44  1  0  0  0
 31 45  1  0  0  0
 32 46  1  0  0  0
 32 47  1  0  0  0
M  END
> <b_m_subgroup_collapsed>
1

> <s_m_subgroup_title>
enumerate_141-out

> <s_m_subgroupid>
enumerate_141-out

$$$$
