21077-2
                    3D
 Schrodinger Suite 2024-3.
 54 55  0  0  1  0            999 V2000
   76.7152   51.2564   42.5117 C   0  0  0  0  0  0
   75.6469   51.8672   41.7091 C   0  0  0  0  0  0
   74.7156   52.5958   42.3599 C   0  0  0  0  0  0
   74.7624   52.7581   43.7471 N   0  0  0  0  0  0
   75.7023   52.2182   44.5484 C   0  0  0  0  0  0
   75.6665   52.3767   45.7684 O   0  0  0  0  0  0
   76.7303   51.4438   43.8559 C   0  0  0  0  0  0
   77.7066   50.8711   44.7216 C   0  0  0  0  0  0
   78.4723   50.4247   45.4646 N   0  0  0  0  0  0
   73.5301   53.2752   41.6754 C   0  0  2  0  0  0
   73.5536   53.2080   40.1403 N   0  0  0  0  0  0
   74.1629   51.9154   39.6394 C   0  0  0  0  0  0
   75.5862   51.7783   40.1806 C   0  0  0  0  0  0
   72.6664   52.6907   41.9933 H   0  0  0  0  0  0
   74.0228   53.3179   44.1572 H   0  0  0  0  0  0
   78.2659   50.0552   41.5379 R   0  0  0  0  0  0
   73.5564   51.0654   39.9852 H   0  0  0  0  0  0
   74.1880   51.9241   38.5497 H   0  0  0  0  0  0
   76.5095   51.6308   39.6012 H   0  0  0  0  0  0
   75.7161   52.8584   40.1126 H   0  0  0  0  0  0
   72.6100   53.2702   39.7856 H   0  0  0  0  0  0
   72.6311   62.0884   50.3883 C   0  0  0  0  0  0
   72.9359   60.7214   49.8513 C   0  0  0  0  0  0
   72.9833   60.7719   48.3529 C   0  0  0  0  0  0
   73.2882   59.4049   47.8159 C   0  0  0  0  0  0
   73.3356   59.4554   46.3175 C   0  0  0  0  0  0
   73.6405   58.0884   45.7805 C   0  0  0  0  0  0
   73.6878   58.1389   44.2821 C   0  0  0  0  0  0
   73.9927   56.7719   43.7452 C   0  0  0  0  0  0
   74.0401   56.8224   42.2468 C   0  0  2  0  0  0
   72.8193   57.2453   41.7619 O   0  0  0  0  0  0
   74.3450   55.4554   41.7098 C   0  0  0  0  0  0
   73.3610   54.5742   42.1095 O   0  0  0  0  0  0
   72.5966   62.0517   51.4771 H   0  0  0  0  0  0
   73.4082   62.7844   50.0726 H   0  0  0  0  0  0
   71.6668   62.4224   50.0053 H   0  0  0  0  0  0
   72.1588   60.0254   50.1670 H   0  0  0  0  0  0
   73.9002   60.3873   50.2342 H   0  0  0  0  0  0
   73.7605   61.4679   48.0372 H   0  0  0  0  0  0
   72.0190   61.1059   47.9699 H   0  0  0  0  0  0
   72.5110   58.7089   48.1316 H   0  0  0  0  0  0
   74.2525   59.0708   48.1989 H   0  0  0  0  0  0
   74.1128   60.1514   46.0018 H   0  0  0  0  0  0
   72.3713   59.7894   45.9346 H   0  0  0  0  0  0
   72.8633   57.3924   46.0962 H   0  0  0  0  0  0
   74.6047   57.7543   46.1635 H   0  0  0  0  0  0
   74.4650   58.8349   43.9665 H   0  0  0  0  0  0
   72.7236   58.4729   43.8992 H   0  0  0  0  0  0
   73.2155   56.0759   44.0608 H   0  0  0  0  0  0
   74.9570   56.4378   44.1281 H   0  0  0  0  0  0
   74.8173   57.5184   41.9311 H   0  0  0  0  0  0
   75.3093   55.1213   42.0927 H   0  0  0  0  0  0
   74.3794   55.4921   40.6209 H   0  0  0  0  0  0
   72.0435   56.6628   42.0044 H   0  0  0  0  0  0
  1  2  1  0  0  0
  1  7  2  0  0  0
  1 16  1  0  0  0
  2  3  2  0  0  0
  2 13  1  0  0  0
  3  4  1  0  0  0
  3 10  1  0  0  0
  4  5  1  0  0  0
  4 15  1  0  0  0
  5  6  2  0  0  0
  5  7  1  0  0  0
  7  8  1  0  0  0
  8  9  3  0  0  0
 10 11  1  0  0  0
 10 14  1  0  0  0
 10 33  1  0  0  0
 11 12  1  0  0  0
 11 21  1  0  0  0
 12 13  1  0  0  0
 12 17  1  0  0  0
 12 18  1  0  0  0
 13 19  1  0  0  0
 13 20  1  0  0  0
 22 23  1  0  0  0
 22 34  1  0  0  0
 22 35  1  0  0  0
 22 36  1  0  0  0
 23 24  1  0  0  0
 23 37  1  0  0  0
 23 38  1  0  0  0
 24 25  1  0  0  0
 24 39  1  0  0  0
 24 40  1  0  0  0
 25 26  1  0  0  0
 25 41  1  0  0  0
 25 42  1  0  0  0
 26 27  1  0  0  0
 26 43  1  0  0  0
 26 44  1  0  0  0
 27 28  1  0  0  0
 27 45  1  0  0  0
 27 46  1  0  0  0
 28 29  1  0  0  0
 28 47  1  0  0  0
 28 48  1  0  0  0
 29 30  1  0  0  0
 29 49  1  0  0  0
 29 50  1  0  0  0
 30 31  1  0  0  0
 30 32  1  0  0  0
 30 51  1  0  0  0
 31 54  1  0  0  0
 32 33  1  0  0  0
 32 52  1  0  0  0
 32 53  1  0  0  0
M  END
> <b_m_subgroup_collapsed>
1

> <s_m_subgroup_title>
enumerate_142-out

> <s_m_subgroupid>
enumerate_142-out

$$$$
