34068-2
                    3D
 Schrodinger Suite 2024-3.
 43 46  0  0  1  0            999 V2000
   76.7152   51.2564   42.5117 C   0  0  0  0  0  0
   75.6469   51.8672   41.7091 C   0  0  0  0  0  0
   74.7156   52.5958   42.3599 C   0  0  0  0  0  0
   74.7624   52.7581   43.7471 N   0  0  0  0  0  0
   75.7023   52.2182   44.5484 C   0  0  0  0  0  0
   75.6665   52.3767   45.7684 O   0  0  0  0  0  0
   76.7303   51.4438   43.8559 C   0  0  0  0  0  0
   77.7066   50.8711   44.7216 C   0  0  0  0  0  0
   78.4723   50.4247   45.4646 N   0  0  0  0  0  0
   73.5301   53.2752   41.6754 C   0  0  2  0  0  0
   73.5536   53.2080   40.1403 N   0  0  0  0  0  0
   74.1629   51.9154   39.6394 C   0  0  0  0  0  0
   75.5862   51.7783   40.1806 C   0  0  0  0  0  0
   72.6664   52.6907   41.9933 H   0  0  0  0  0  0
   74.0228   53.3179   44.1572 H   0  0  0  0  0  0
   78.2659   50.0552   41.5379 R   0  0  0  0  0  0
   73.5564   51.0654   39.9852 H   0  0  0  0  0  0
   74.1880   51.9241   38.5497 H   0  0  0  0  0  0
   76.5095   51.6308   39.6012 H   0  0  0  0  0  0
   75.7161   52.8584   40.1126 H   0  0  0  0  0  0
   72.6100   53.2702   39.7856 H   0  0  0  0  0  0
   73.3463   54.6872   42.1472 C   0  0  1  0  0  0
   72.6615   55.6787   41.2341 C   0  0  0  0  0  0
   71.9515   55.1735   42.4696 C   0  0  1  0  0  0
   70.7989   54.2274   42.3067 C   0  0  0  0  0  0
   69.5738   54.9878   42.0774 N   0  0  0  0  0  0
   68.7450   55.4252   43.0258 C   0  0  0  0  0  0
   68.9357   55.2257   44.2219 O   0  0  0  0  0  0
   67.5805   56.1732   42.4474 C   0  0  0  0  0  0
   66.3698   55.3946   41.9848 C   0  0  0  0  0  0
   66.2920   56.2407   43.2355 C   0  0  0  0  0  0
   74.1797   55.0279   42.7654 H   0  0  0  0  0  0
   73.0171   56.7112   41.2153 H   0  0  0  0  0  0
   72.3176   55.3424   40.2536 H   0  0  0  0  0  0
   71.8118   55.8534   43.3127 H   0  0  0  0  0  0
   70.9843   53.5719   41.4558 H   0  0  0  0  0  0
   70.6905   53.6278   43.2105 H   0  0  0  0  0  0
   67.8950   57.0484   41.8749 H   0  0  0  0  0  0
   65.8397   55.7268   41.0896 H   0  0  0  0  0  0
   66.3730   54.3070   42.0832 H   0  0  0  0  0  0
   66.2409   55.7432   44.2063 H   0  0  0  0  0  0
   65.7076   57.1630   43.2127 H   0  0  0  0  0  0
   69.4556   55.1291   41.0843 H   0  0  0  0  0  0
  1  2  1  0  0  0
  1  7  2  0  0  0
  1 16  1  0  0  0
  2  3  2  0  0  0
  2 13  1  0  0  0
  3  4  1  0  0  0
  3 10  1  0  0  0
  4  5  1  0  0  0
  4 15  1  0  0  0
  5  6  2  0  0  0
  5  7  1  0  0  0
  7  8  1  0  0  0
  8  9  3  0  0  0
 10 11  1  0  0  0
 10 14  1  0  0  0
 10 22  1  0  0  0
 11 12  1  0  0  0
 11 21  1  0  0  0
 12 13  1  0  0  0
 12 17  1  0  0  0
 12 18  1  0  0  0
 13 19  1  0  0  0
 13 20  1  0  0  0
 22 23  1  0  0  0
 22 24  1  0  0  0
 22 32  1  0  0  0
 23 24  1  0  0  0
 23 33  1  0  0  0
 23 34  1  0  0  0
 24 25  1  0  0  0
 24 35  1  0  0  0
 25 26  1  0  0  0
 25 36  1  0  0  0
 25 37  1  0  0  0
 26 27  1  0  0  0
 26 43  1  0  0  0
 27 28  2  0  0  0
 27 29  1  0  0  0
 29 30  1  0  0  0
 29 31  1  0  0  0
 29 38  1  0  0  0
 30 31  1  0  0  0
 30 39  1  0  0  0
 30 40  1  0  0  0
 31 41  1  0  0  0
 31 42  1  0  0  0
M  END
> <b_m_subgroup_collapsed>
1

> <s_m_subgroup_title>
enumerate_142-out

> <s_m_subgroupid>
enumerate_142-out

$$$$
