10780-1
                    3D
 Schrodinger Suite 2024-3.
 41 43  0  0  1  0            999 V2000
   76.7152   51.2564   42.5117 C   0  0  0  0  0  0
   75.6469   51.8672   41.7091 C   0  0  0  0  0  0
   74.7156   52.5958   42.3599 C   0  0  0  0  0  0
   74.7624   52.7581   43.7471 N   0  0  0  0  0  0
   75.7023   52.2182   44.5484 C   0  0  0  0  0  0
   75.6665   52.3767   45.7684 O   0  0  0  0  0  0
   76.7303   51.4438   43.8559 C   0  0  0  0  0  0
   77.7066   50.8711   44.7216 C   0  0  0  0  0  0
   78.4723   50.4247   45.4646 N   0  0  0  0  0  0
   73.5301   53.2752   41.6754 C   0  0  2  0  0  0
   73.5536   53.2080   40.1403 N   0  0  0  0  0  0
   74.1629   51.9154   39.6394 C   0  0  0  0  0  0
   75.5862   51.7783   40.1806 C   0  0  0  0  0  0
   72.6664   52.6907   41.9933 H   0  0  0  0  0  0
   74.0228   53.3179   44.1572 H   0  0  0  0  0  0
   78.2659   50.0552   41.5379 R   0  0  0  0  0  0
   73.5564   51.0654   39.9852 H   0  0  0  0  0  0
   74.1880   51.9241   38.5497 H   0  0  0  0  0  0
   76.5095   51.6308   39.6012 H   0  0  0  0  0  0
   75.7161   52.8584   40.1126 H   0  0  0  0  0  0
   72.6100   53.2702   39.7856 H   0  0  0  0  0  0
   73.3463   54.6872   42.1472 C   0  0  0  0  0  0
   73.2516   55.5284   40.9089 C   0  0  0  0  0  0
   72.0361   54.8092   42.9510 C   0  0  0  0  0  0
   71.8506   56.2261   43.5306 C   0  0  0  0  0  0
   73.0732   56.6695   44.3591 C   0  0  0  0  0  0
   74.3834   56.5475   43.5553 C   0  0  0  0  0  0
   74.5689   55.1306   42.9757 C   0  0  0  0  0  0
   73.1163   56.5731   41.1889 H   0  0  0  0  0  0
   74.1678   55.4237   40.3276 H   0  0  0  0  0  0
   72.4020   55.1997   40.3104 H   0  0  0  0  0  0
   71.1846   54.5491   42.3198 H   0  0  0  0  0  0
   72.0409   54.0820   43.7652 H   0  0  0  0  0  0
   71.6893   56.9335   42.7148 H   0  0  0  0  0  0
   70.9492   56.2638   44.1446 H   0  0  0  0  0  0
   72.9395   57.6968   44.7023 H   0  0  0  0  0  0
   73.1421   56.0573   45.2603 H   0  0  0  0  0  0
   74.3786   57.2747   42.7411 H   0  0  0  0  0  0
   75.2349   56.8076   44.1864 H   0  0  0  0  0  0
   74.7302   54.4232   43.7915 H   0  0  0  0  0  0
   75.4703   55.0929   42.3616 H   0  0  0  0  0  0
  1  2  1  0  0  0
  1  7  2  0  0  0
  1 16  1  0  0  0
  2  3  2  0  0  0
  2 13  1  0  0  0
  3  4  1  0  0  0
  3 10  1  0  0  0
  4  5  1  0  0  0
  4 15  1  0  0  0
  5  6  2  0  0  0
  5  7  1  0  0  0
  7  8  1  0  0  0
  8  9  3  0  0  0
 10 11  1  0  0  0
 10 14  1  0  0  0
 10 22  1  0  0  0
 11 12  1  0  0  0
 11 21  1  0  0  0
 12 13  1  0  0  0
 12 17  1  0  0  0
 12 18  1  0  0  0
 13 19  1  0  0  0
 13 20  1  0  0  0
 22 23  1  0  0  0
 22 24  1  0  0  0
 22 28  1  0  0  0
 23 29  1  0  0  0
 23 30  1  0  0  0
 23 31  1  0  0  0
 24 25  1  0  0  0
 24 32  1  0  0  0
 24 33  1  0  0  0
 25 26  1  0  0  0
 25 34  1  0  0  0
 25 35  1  0  0  0
 26 27  1  0  0  0
 26 36  1  0  0  0
 26 37  1  0  0  0
 27 28  1  0  0  0
 27 38  1  0  0  0
 27 39  1  0  0  0
 28 40  1  0  0  0
 28 41  1  0  0  0
M  END
> <b_m_subgroup_collapsed>
1

> <s_m_subgroup_title>
enumerate_141-out

> <s_m_subgroupid>
enumerate_141-out

$$$$
