22529-2
                    3D
 Schrodinger Suite 2024-3.
 42 44  0  0  1  0            999 V2000
   76.7152   51.2564   42.5117 C   0  0  0  0  0  0
   75.6469   51.8672   41.7091 C   0  0  0  0  0  0
   74.7156   52.5958   42.3599 C   0  0  0  0  0  0
   74.7624   52.7581   43.7471 N   0  0  0  0  0  0
   75.7023   52.2182   44.5484 C   0  0  0  0  0  0
   75.6665   52.3767   45.7684 O   0  0  0  0  0  0
   76.7303   51.4438   43.8559 C   0  0  0  0  0  0
   77.7066   50.8711   44.7216 C   0  0  0  0  0  0
   78.4723   50.4247   45.4646 N   0  0  0  0  0  0
   73.5301   53.2752   41.6754 C   0  0  2  0  0  0
   73.5536   53.2080   40.1403 N   0  0  0  0  0  0
   74.1629   51.9154   39.6394 C   0  0  0  0  0  0
   75.5862   51.7783   40.1806 C   0  0  0  0  0  0
   72.6664   52.6907   41.9933 H   0  0  0  0  0  0
   74.0228   53.3179   44.1572 H   0  0  0  0  0  0
   78.2659   50.0552   41.5379 R   0  0  0  0  0  0
   73.5564   51.0654   39.9852 H   0  0  0  0  0  0
   74.1880   51.9241   38.5497 H   0  0  0  0  0  0
   76.5095   51.6308   39.6012 H   0  0  0  0  0  0
   75.7161   52.8584   40.1126 H   0  0  0  0  0  0
   72.6100   53.2702   39.7856 H   0  0  0  0  0  0
   73.3610   54.5742   42.1095 O   0  0  0  0  0  0
   72.1960   55.1827   41.6888 C   0  0  1  0  0  0
   71.3440   55.5624   42.9167 C   0  0  0  0  0  0
   72.0103   56.6729   43.7537 C   0  0  0  0  0  0
   72.3573   57.9059   42.8951 C   0  0  0  0  0  0
   73.2093   57.5262   41.6672 C   0  0  0  0  0  0
   72.5430   56.4157   40.8302 C   0  0  1  0  0  0
   73.4418   56.0166   39.6976 C   0  0  0  0  0  0
   71.6706   54.4417   41.0839 H   0  0  0  0  0  0
   70.3598   55.8990   42.5853 H   0  0  0  0  0  0
   71.1682   54.6816   43.5366 H   0  0  0  0  0  0
   71.3564   56.9633   44.5778 H   0  0  0  0  0  0
   72.9204   56.2837   44.2141 H   0  0  0  0  0  0
   71.4357   58.3873   42.5623 H   0  0  0  0  0  0
   72.8827   58.6469   43.5000 H   0  0  0  0  0  0
   74.1935   57.1897   41.9986 H   0  0  0  0  0  0
   73.3851   58.4070   41.0473 H   0  0  0  0  0  0
   71.6329   56.8049   40.3698 H   0  0  0  0  0  0
   74.3741   55.6172   40.0969 H   0  0  0  0  0  0
   72.9491   55.2544   39.0939 H   0  0  0  0  0  0
   73.6555   56.8882   39.0788 H   0  0  0  0  0  0
  1  2  1  0  0  0
  1  7  2  0  0  0
  1 16  1  0  0  0
  2  3  2  0  0  0
  2 13  1  0  0  0
  3  4  1  0  0  0
  3 10  1  0  0  0
  4  5  1  0  0  0
  4 15  1  0  0  0
  5  6  2  0  0  0
  5  7  1  0  0  0
  7  8  1  0  0  0
  8  9  3  0  0  0
 10 11  1  0  0  0
 10 14  1  0  0  0
 10 22  1  0  0  0
 11 12  1  0  0  0
 11 21  1  0  0  0
 12 13  1  0  0  0
 12 17  1  0  0  0
 12 18  1  0  0  0
 13 19  1  0  0  0
 13 20  1  0  0  0
 22 23  1  0  0  0
 23 24  1  0  0  0
 23 28  1  0  0  0
 23 30  1  0  0  0
 24 25  1  0  0  0
 24 31  1  0  0  0
 24 32  1  0  0  0
 25 26  1  0  0  0
 25 33  1  0  0  0
 25 34  1  0  0  0
 26 27  1  0  0  0
 26 35  1  0  0  0
 26 36  1  0  0  0
 27 28  1  0  0  0
 27 37  1  0  0  0
 27 38  1  0  0  0
 28 29  1  0  0  0
 28 39  1  0  0  0
 29 40  1  0  0  0
 29 41  1  0  0  0
 29 42  1  0  0  0
M  END
> <b_m_subgroup_collapsed>
1

> <s_m_subgroup_title>
enumerate_141-out

> <s_m_subgroupid>
enumerate_141-out

$$$$
