44127-4
                    3D
 Schrodinger Suite 2024-3.
 36 38  0  0  1  0            999 V2000
   76.7152   51.2564   42.5117 C   0  0  0  0  0  0
   75.6469   51.8672   41.7091 C   0  0  0  0  0  0
   74.7156   52.5958   42.3599 C   0  0  0  0  0  0
   74.7624   52.7581   43.7471 N   0  0  0  0  0  0
   75.7023   52.2182   44.5484 C   0  0  0  0  0  0
   75.6665   52.3767   45.7684 O   0  0  0  0  0  0
   76.7303   51.4438   43.8559 C   0  0  0  0  0  0
   77.7066   50.8711   44.7216 C   0  0  0  0  0  0
   78.4723   50.4247   45.4646 N   0  0  0  0  0  0
   73.5301   53.2752   41.6754 C   0  0  2  0  0  0
   73.5536   53.2080   40.1403 N   0  0  0  0  0  0
   74.1629   51.9154   39.6394 C   0  0  0  0  0  0
   75.5862   51.7783   40.1806 C   0  0  0  0  0  0
   72.6664   52.6907   41.9933 H   0  0  0  0  0  0
   74.0228   53.3179   44.1572 H   0  0  0  0  0  0
   78.2659   50.0552   41.5379 R   0  0  0  0  0  0
   73.5564   51.0654   39.9852 H   0  0  0  0  0  0
   74.1880   51.9241   38.5497 H   0  0  0  0  0  0
   76.5095   51.6308   39.6012 H   0  0  0  0  0  0
   75.7161   52.8584   40.1126 H   0  0  0  0  0  0
   72.6100   53.2702   39.7856 H   0  0  0  0  0  0
   73.3463   54.6872   42.1472 C   0  0  2  0  0  0
   72.0525   55.3143   41.6361 C   0  0  1  0  0  0
   70.9890   54.9129   42.3298 F   0  0  0  0  0  0
   72.2987   56.8141   41.7723 C   0  0  0  0  0  0
   73.7797   56.9946   41.4150 C   0  0  0  0  0  0
   74.4515   55.6305   41.6551 C   0  0  1  0  0  0
   75.5715   55.7229   42.6486 C   0  0  0  0  0  0
   76.4148   55.8050   43.4365 N   0  0  0  0  0  0
   73.3376   54.6721   43.2382 H   0  0  0  0  0  0
   71.8844   55.0474   40.5914 H   0  0  0  0  0  0
   72.1326   57.1181   42.8069 H   0  0  0  0  0  0
   71.6345   57.4078   41.1434 H   0  0  0  0  0  0
   73.8827   57.2778   40.3665 H   0  0  0  0  0  0
   74.2375   57.7858   42.0103 H   0  0  0  0  0  0
   74.8766   55.2585   40.7218 H   0  0  0  0  0  0
  1  2  1  0  0  0
  1  7  2  0  0  0
  1 16  1  0  0  0
  2  3  2  0  0  0
  2 13  1  0  0  0
  3  4  1  0  0  0
  3 10  1  0  0  0
  4  5  1  0  0  0
  4 15  1  0  0  0
  5  6  2  0  0  0
  5  7  1  0  0  0
  7  8  1  0  0  0
  8  9  3  0  0  0
 10 11  1  0  0  0
 10 14  1  0  0  0
 10 22  1  0  0  0
 11 12  1  0  0  0
 11 21  1  0  0  0
 12 13  1  0  0  0
 12 17  1  0  0  0
 12 18  1  0  0  0
 13 19  1  0  0  0
 13 20  1  0  0  0
 22 23  1  0  0  0
 22 27  1  0  0  0
 22 30  1  0  0  0
 23 24  1  0  0  0
 23 25  1  0  0  0
 23 31  1  0  0  0
 25 26  1  0  0  0
 25 32  1  0  0  0
 25 33  1  0  0  0
 26 27  1  0  0  0
 26 34  1  0  0  0
 26 35  1  0  0  0
 27 28  1  0  0  0
 27 36  1  0  0  0
 28 29  3  0  0  0
M  END
> <b_m_subgroup_collapsed>
1

> <s_m_subgroup_title>
enumerate_142-out

> <s_m_subgroupid>
enumerate_142-out

$$$$
