24810-2
                    3D
 Schrodinger Suite 2024-3.
 48 50  0  0  1  0            999 V2000
   76.7152   51.2564   42.5117 C   0  0  0  0  0  0
   75.6469   51.8672   41.7091 C   0  0  0  0  0  0
   74.7156   52.5958   42.3599 C   0  0  0  0  0  0
   74.7624   52.7581   43.7471 N   0  0  0  0  0  0
   75.7023   52.2182   44.5484 C   0  0  0  0  0  0
   75.6665   52.3767   45.7684 O   0  0  0  0  0  0
   76.7303   51.4438   43.8559 C   0  0  0  0  0  0
   77.7066   50.8711   44.7216 C   0  0  0  0  0  0
   78.4723   50.4247   45.4646 N   0  0  0  0  0  0
   73.5301   53.2752   41.6754 C   0  0  2  0  0  0
   73.5536   53.2080   40.1403 N   0  0  0  0  0  0
   74.1629   51.9154   39.6394 C   0  0  0  0  0  0
   75.5862   51.7783   40.1806 C   0  0  0  0  0  0
   72.6664   52.6907   41.9933 H   0  0  0  0  0  0
   74.0228   53.3179   44.1572 H   0  0  0  0  0  0
   78.2659   50.0552   41.5379 R   0  0  0  0  0  0
   73.5564   51.0654   39.9852 H   0  0  0  0  0  0
   74.1880   51.9241   38.5497 H   0  0  0  0  0  0
   76.5095   51.6308   39.6012 H   0  0  0  0  0  0
   75.7161   52.8584   40.1126 H   0  0  0  0  0  0
   72.6100   53.2702   39.7856 H   0  0  0  0  0  0
   73.3512   54.6495   42.1346 N   0  0  0  0  0  0
   74.1724   55.6667   41.8721 C   0  0  0  0  0  0
   75.1908   55.5445   41.1978 O   0  0  0  0  0  0
   73.6947   56.9445   42.4958 C   0  0  1  0  0  0
   74.7495   57.4499   43.5006 C   0  0  0  0  0  0
   76.0457   57.8946   42.7937 C   0  0  0  0  0  0
   75.7667   58.9319   41.6873 C   0  0  0  0  0  0
   74.7119   58.4265   40.6825 C   0  0  0  0  0  0
   73.4156   57.9817   41.3894 C   0  0  0  0  0  0
   72.4516   57.4181   40.3879 C   0  0  0  0  0  0
   72.7383   59.1789   41.9878 C   0  0  0  0  0  0
   72.7690   56.6970   43.0182 H   0  0  0  0  0  0
   74.3389   58.2883   44.0666 H   0  0  0  0  0  0
   74.9711   56.6718   44.2330 H   0  0  0  0  0  0
   76.7471   58.3047   43.5223 H   0  0  0  0  0  0
   76.5387   57.0234   42.3582 H   0  0  0  0  0  0
   75.4190   59.8619   42.1413 H   0  0  0  0  0  0
   76.6924   59.1794   41.1649 H   0  0  0  0  0  0
   75.1225   57.5881   40.1165 H   0  0  0  0  0  0
   74.4903   59.2046   39.9501 H   0  0  0  0  0  0
   72.2610   58.1582   39.6107 H   0  0  0  0  0  0
   72.8774   56.5209   39.9387 H   0  0  0  0  0  0
   71.5158   57.1657   40.8866 H   0  0  0  0  0  0
   72.5406   59.9128   41.2065 H   0  0  0  0  0  0
   71.7975   58.8730   42.4455 H   0  0  0  0  0  0
   73.3846   59.6207   42.7462 H   0  0  0  0  0  0
   72.5051   54.7054   42.6833 H   0  0  0  0  0  0
  1  2  1  0  0  0
  1  7  2  0  0  0
  1 16  1  0  0  0
  2  3  2  0  0  0
  2 13  1  0  0  0
  3  4  1  0  0  0
  3 10  1  0  0  0
  4  5  1  0  0  0
  4 15  1  0  0  0
  5  6  2  0  0  0
  5  7  1  0  0  0
  7  8  1  0  0  0
  8  9  3  0  0  0
 10 11  1  0  0  0
 10 14  1  0  0  0
 10 22  1  0  0  0
 11 12  1  0  0  0
 11 21  1  0  0  0
 12 13  1  0  0  0
 12 17  1  0  0  0
 12 18  1  0  0  0
 13 19  1  0  0  0
 13 20  1  0  0  0
 22 23  1  0  0  0
 22 48  1  0  0  0
 23 24  2  0  0  0
 23 25  1  0  0  0
 25 26  1  0  0  0
 25 30  1  0  0  0
 25 33  1  0  0  0
 26 27  1  0  0  0
 26 34  1  0  0  0
 26 35  1  0  0  0
 27 28  1  0  0  0
 27 36  1  0  0  0
 27 37  1  0  0  0
 28 29  1  0  0  0
 28 38  1  0  0  0
 28 39  1  0  0  0
 29 30  1  0  0  0
 29 40  1  0  0  0
 29 41  1  0  0  0
 30 31  1  0  0  0
 30 32  1  0  0  0
 31 42  1  0  0  0
 31 43  1  0  0  0
 31 44  1  0  0  0
 32 45  1  0  0  0
 32 46  1  0  0  0
 32 47  1  0  0  0
M  END
> <b_m_subgroup_collapsed>
1

> <s_m_subgroup_title>
enumerate_141-out

> <s_m_subgroupid>
enumerate_141-out

$$$$
