15989-1
                    3D
 Schrodinger Suite 2024-3.
 39 42  0  0  1  0            999 V2000
   76.7152   51.2564   42.5117 C   0  0  0  0  0  0
   75.6469   51.8672   41.7091 C   0  0  0  0  0  0
   74.7156   52.5958   42.3599 C   0  0  0  0  0  0
   74.7624   52.7581   43.7471 N   0  0  0  0  0  0
   75.7023   52.2182   44.5484 C   0  0  0  0  0  0
   75.6665   52.3767   45.7684 O   0  0  0  0  0  0
   76.7303   51.4438   43.8559 C   0  0  0  0  0  0
   77.7066   50.8711   44.7216 C   0  0  0  0  0  0
   78.4723   50.4247   45.4646 N   0  0  0  0  0  0
   73.5301   53.2752   41.6754 C   0  0  2  0  0  0
   73.5536   53.2080   40.1403 N   0  0  0  0  0  0
   74.1629   51.9154   39.6394 C   0  0  0  0  0  0
   75.5862   51.7783   40.1806 C   0  0  0  0  0  0
   72.6664   52.6907   41.9933 H   0  0  0  0  0  0
   74.0228   53.3179   44.1572 H   0  0  0  0  0  0
   78.2659   50.0552   41.5379 R   0  0  0  0  0  0
   73.5564   51.0654   39.9852 H   0  0  0  0  0  0
   74.1880   51.9241   38.5497 H   0  0  0  0  0  0
   76.5095   51.6308   39.6012 H   0  0  0  0  0  0
   75.7161   52.8584   40.1126 H   0  0  0  0  0  0
   72.6100   53.2702   39.7856 H   0  0  0  0  0  0
   73.3610   54.5742   42.1095 O   0  0  0  0  0  0
   74.3450   55.4554   41.7098 C   0  0  2  0  0  0
   75.0552   56.1326   42.8731 C   0  0  0  0  0  0
   75.5953   57.3203   42.3078 O   0  0  0  0  0  0
   74.8014   57.7589   41.2004 C   0  0  2  0  0  0
   73.9018   58.9370   41.5349 C   0  0  2  0  0  0
   74.4785   59.8183   42.3538 F   0  0  0  0  0  0
   72.6687   58.2742   42.1316 C   0  0  0  0  0  0
   72.5370   57.0585   41.3998 O   0  0  0  0  0  0
   73.8110   56.6290   40.9115 C   0  0  2  0  0  0
   75.0722   54.9054   41.1118 H   0  0  0  0  0  0
   74.3494   56.3897   43.6631 H   0  0  0  0  0  0
   75.8352   55.5087   43.3099 H   0  0  0  0  0  0
   75.4565   57.9738   40.3555 H   0  0  0  0  0  0
   73.6277   59.4646   40.6212 H   0  0  0  0  0  0
   72.8231   58.0481   43.1868 H   0  0  0  0  0  0
   71.7759   58.8943   42.0485 H   0  0  0  0  0  0
   73.7310   56.3996   39.8483 H   0  0  0  0  0  0
  1  2  1  0  0  0
  1  7  2  0  0  0
  1 16  1  0  0  0
  2  3  2  0  0  0
  2 13  1  0  0  0
  3  4  1  0  0  0
  3 10  1  0  0  0
  4  5  1  0  0  0
  4 15  1  0  0  0
  5  6  2  0  0  0
  5  7  1  0  0  0
  7  8  1  0  0  0
  8  9  3  0  0  0
 10 11  1  0  0  0
 10 14  1  0  0  0
 10 22  1  0  0  0
 11 12  1  0  0  0
 11 21  1  0  0  0
 12 13  1  0  0  0
 12 17  1  0  0  0
 12 18  1  0  0  0
 13 19  1  0  0  0
 13 20  1  0  0  0
 22 23  1  0  0  0
 23 24  1  0  0  0
 23 31  1  0  0  0
 23 32  1  0  0  0
 24 25  1  0  0  0
 24 33  1  0  0  0
 24 34  1  0  0  0
 25 26  1  0  0  0
 26 27  1  0  0  0
 26 31  1  0  0  0
 26 35  1  0  0  0
 27 28  1  0  0  0
 27 29  1  0  0  0
 27 36  1  0  0  0
 29 30  1  0  0  0
 29 37  1  0  0  0
 29 38  1  0  0  0
 30 31  1  0  0  0
 31 39  1  0  0  0
M  END
> <b_m_subgroup_collapsed>
1

> <s_m_subgroup_title>
enumerate_142-out

> <s_m_subgroupid>
enumerate_142-out

$$$$
