16462-1
                    3D
 Schrodinger Suite 2024-3.
 42 44  0  0  1  0            999 V2000
   76.7152   51.2564   42.5117 C   0  0  0  0  0  0
   75.6469   51.8672   41.7091 C   0  0  0  0  0  0
   74.7156   52.5958   42.3599 C   0  0  0  0  0  0
   74.7624   52.7581   43.7471 N   0  0  0  0  0  0
   75.7023   52.2182   44.5484 C   0  0  0  0  0  0
   75.6665   52.3767   45.7684 O   0  0  0  0  0  0
   76.7303   51.4438   43.8559 C   0  0  0  0  0  0
   77.7066   50.8711   44.7216 C   0  0  0  0  0  0
   78.4723   50.4247   45.4646 N   0  0  0  0  0  0
   73.5301   53.2752   41.6754 C   0  0  2  0  0  0
   73.5536   53.2080   40.1403 N   0  0  0  0  0  0
   74.1629   51.9154   39.6394 C   0  0  0  0  0  0
   75.5862   51.7783   40.1806 C   0  0  0  0  0  0
   72.6664   52.6907   41.9933 H   0  0  0  0  0  0
   74.0228   53.3179   44.1572 H   0  0  0  0  0  0
   78.2659   50.0552   41.5379 R   0  0  0  0  0  0
   73.5564   51.0654   39.9852 H   0  0  0  0  0  0
   74.1880   51.9241   38.5497 H   0  0  0  0  0  0
   76.5095   51.6308   39.6012 H   0  0  0  0  0  0
   75.7161   52.8584   40.1126 H   0  0  0  0  0  0
   72.6100   53.2702   39.7856 H   0  0  0  0  0  0
   73.3610   54.5742   42.1095 O   0  0  0  0  0  0
   74.3450   55.4554   41.7098 C   0  0  0  0  0  0
   74.0401   56.8224   42.2468 C   0  0  0  0  0  0
   73.9420   56.7746   43.7857 C   0  0  0  0  0  0
   73.7199   58.1824   44.3846 C   0  0  0  0  0  0
   74.7775   59.1976   43.9120 C   0  0  0  0  0  0
   74.4664   60.4110   44.3652 F   0  0  0  0  0  0
   75.9634   58.8677   44.4252 F   0  0  0  0  0  0
   74.8809   59.2305   42.3755 C   0  0  0  0  0  0
   75.1082   57.8274   41.7677 C   0  0  0  0  0  0
   75.3093   55.1213   42.0927 H   0  0  0  0  0  0
   74.3794   55.4921   40.6209 H   0  0  0  0  0  0
   73.0694   57.0978   41.8295 H   0  0  0  0  0  0
   73.1355   56.1048   44.0896 H   0  0  0  0  0  0
   74.8590   56.3449   44.1945 H   0  0  0  0  0  0
   72.7316   58.5454   44.1006 H   0  0  0  0  0  0
   73.7219   58.1339   45.4737 H   0  0  0  0  0  0
   73.9629   59.6570   41.9698 H   0  0  0  0  0  0
   75.6840   59.9052   42.0784 H   0  0  0  0  0  0
   76.0993   57.4647   42.0482 H   0  0  0  0  0  0
   75.1071   57.8848   40.6776 H   0  0  0  0  0  0
  1  2  1  0  0  0
  1  7  2  0  0  0
  1 16  1  0  0  0
  2  3  2  0  0  0
  2 13  1  0  0  0
  3  4  1  0  0  0
  3 10  1  0  0  0
  4  5  1  0  0  0
  4 15  1  0  0  0
  5  6  2  0  0  0
  5  7  1  0  0  0
  7  8  1  0  0  0
  8  9  3  0  0  0
 10 11  1  0  0  0
 10 14  1  0  0  0
 10 22  1  0  0  0
 11 12  1  0  0  0
 11 21  1  0  0  0
 12 13  1  0  0  0
 12 17  1  0  0  0
 12 18  1  0  0  0
 13 19  1  0  0  0
 13 20  1  0  0  0
 22 23  1  0  0  0
 23 24  1  0  0  0
 23 32  1  0  0  0
 23 33  1  0  0  0
 24 25  1  0  0  0
 24 31  1  0  0  0
 24 34  1  0  0  0
 25 26  1  0  0  0
 25 35  1  0  0  0
 25 36  1  0  0  0
 26 27  1  0  0  0
 26 37  1  0  0  0
 26 38  1  0  0  0
 27 28  1  0  0  0
 27 29  1  0  0  0
 27 30  1  0  0  0
 30 31  1  0  0  0
 30 39  1  0  0  0
 30 40  1  0  0  0
 31 41  1  0  0  0
 31 42  1  0  0  0
M  END
> <b_m_subgroup_collapsed>
1

> <s_m_subgroup_title>
enumerate_142-out

> <s_m_subgroupid>
enumerate_142-out

$$$$
