11475-2
                    3D
 Schrodinger Suite 2024-3.
 41 44  0  0  1  0            999 V2000
   76.7152   51.2564   42.5117 C   0  0  0  0  0  0
   75.6469   51.8672   41.7091 C   0  0  0  0  0  0
   74.7156   52.5958   42.3599 C   0  0  0  0  0  0
   74.7624   52.7581   43.7471 N   0  0  0  0  0  0
   75.7023   52.2182   44.5484 C   0  0  0  0  0  0
   75.6665   52.3767   45.7684 O   0  0  0  0  0  0
   76.7303   51.4438   43.8559 C   0  0  0  0  0  0
   77.7066   50.8711   44.7216 C   0  0  0  0  0  0
   78.4723   50.4247   45.4646 N   0  0  0  0  0  0
   73.5301   53.2752   41.6754 C   0  0  2  0  0  0
   73.5536   53.2080   40.1403 N   0  0  0  0  0  0
   74.1629   51.9154   39.6394 C   0  0  0  0  0  0
   75.5862   51.7783   40.1806 C   0  0  0  0  0  0
   72.6664   52.6907   41.9933 H   0  0  0  0  0  0
   74.0228   53.3179   44.1572 H   0  0  0  0  0  0
   78.2659   50.0552   41.5379 R   0  0  0  0  0  0
   73.5564   51.0654   39.9852 H   0  0  0  0  0  0
   74.1880   51.9241   38.5497 H   0  0  0  0  0  0
   76.5095   51.6308   39.6012 H   0  0  0  0  0  0
   75.7161   52.8584   40.1126 H   0  0  0  0  0  0
   72.6100   53.2702   39.7856 H   0  0  0  0  0  0
   73.3512   54.6495   42.1346 N   0  0  0  0  0  0
   74.4529   55.4738   41.6463 C   0  0  1  0  0  0
   74.3587   56.0720   40.2609 C   0  0  0  0  0  0
   74.2336   56.9603   41.4780 C   0  0  2  0  0  0
   75.3555   57.8998   41.8074 C   0  0  0  0  0  0
   75.9503   57.8589   43.0628 C   0  0  0  0  0  0
   76.9898   58.7294   43.3681 C   0  0  0  0  0  0
   77.4346   59.6409   42.4178 C   0  0  0  0  0  0
   76.8399   59.6818   41.1623 C   0  0  0  0  0  0
   75.8003   58.8113   40.8571 C   0  0  0  0  0  0
   72.4769   55.0118   41.7818 H   0  0  0  0  0  0
   75.4227   55.1210   42.0035 H   0  0  0  0  0  0
   75.2629   56.1364   39.6517 H   0  0  0  0  0  0
   73.4689   55.8727   39.6598 H   0  0  0  0  0  0
   73.2565   57.3806   41.7259 H   0  0  0  0  0  0
   75.6040   57.1493   43.8027 H   0  0  0  0  0  0
   77.4528   58.6975   44.3455 H   0  0  0  0  0  0
   78.2439   60.3186   42.6554 H   0  0  0  0  0  0
   77.1862   60.3914   40.4225 H   0  0  0  0  0  0
   75.3373   58.8432   39.8796 H   0  0  0  0  0  0
  1  2  1  0  0  0
  1  7  2  0  0  0
  1 16  1  0  0  0
  2  3  2  0  0  0
  2 13  1  0  0  0
  3  4  1  0  0  0
  3 10  1  0  0  0
  4  5  1  0  0  0
  4 15  1  0  0  0
  5  6  2  0  0  0
  5  7  1  0  0  0
  7  8  1  0  0  0
  8  9  3  0  0  0
 10 11  1  0  0  0
 10 14  1  0  0  0
 10 22  1  0  0  0
 11 12  1  0  0  0
 11 21  1  0  0  0
 12 13  1  0  0  0
 12 17  1  0  0  0
 12 18  1  0  0  0
 13 19  1  0  0  0
 13 20  1  0  0  0
 22 23  1  0  0  0
 22 32  1  0  0  0
 23 24  1  0  0  0
 23 25  1  0  0  0
 23 33  1  0  0  0
 24 25  1  0  0  0
 24 34  1  0  0  0
 24 35  1  0  0  0
 25 26  1  0  0  0
 25 36  1  0  0  0
 26 27  2  0  0  0
 26 31  1  0  0  0
 27 28  1  0  0  0
 27 37  1  0  0  0
 28 29  2  0  0  0
 28 38  1  0  0  0
 29 30  1  0  0  0
 29 39  1  0  0  0
 30 31  2  0  0  0
 30 40  1  0  0  0
 31 41  1  0  0  0
M  END
> <b_m_subgroup_collapsed>
1

> <s_m_subgroup_title>
enumerate_141-out

> <s_m_subgroupid>
enumerate_141-out

$$$$
