21482-1
                    3D
 Schrodinger Suite 2024-3.
 42 43  0  0  1  0            999 V2000
   76.7152   51.2564   42.5117 C   0  0  0  0  0  0
   75.6469   51.8672   41.7091 C   0  0  0  0  0  0
   74.7156   52.5958   42.3599 C   0  0  0  0  0  0
   74.7624   52.7581   43.7471 N   0  0  0  0  0  0
   75.7023   52.2182   44.5484 C   0  0  0  0  0  0
   75.6665   52.3767   45.7684 O   0  0  0  0  0  0
   76.7303   51.4438   43.8559 C   0  0  0  0  0  0
   77.7066   50.8711   44.7216 C   0  0  0  0  0  0
   78.4723   50.4247   45.4646 N   0  0  0  0  0  0
   73.5301   53.2752   41.6754 C   0  0  2  0  0  0
   73.5536   53.2080   40.1403 N   0  0  0  0  0  0
   74.1629   51.9154   39.6394 C   0  0  0  0  0  0
   75.5862   51.7783   40.1806 C   0  0  0  0  0  0
   72.6664   52.6907   41.9933 H   0  0  0  0  0  0
   74.0228   53.3179   44.1572 H   0  0  0  0  0  0
   78.2659   50.0552   41.5379 R   0  0  0  0  0  0
   73.5564   51.0654   39.9852 H   0  0  0  0  0  0
   74.1880   51.9241   38.5497 H   0  0  0  0  0  0
   76.5095   51.6308   39.6012 H   0  0  0  0  0  0
   75.7161   52.8584   40.1126 H   0  0  0  0  0  0
   72.6100   53.2702   39.7856 H   0  0  0  0  0  0
   71.0393   52.3200   46.9753 C   0  0  0  0  0  0
   71.2184   53.5388   46.3533 O   0  0  0  0  0  0
   70.3464   53.7977   45.3154 C   0  0  0  0  0  0
   70.6497   55.1459   44.7320 C   0  0  0  0  0  0
   72.0586   55.1626   44.2174 C   0  0  0  0  0  0
   73.0475   55.4851   44.8693 O   0  0  0  0  0  0
   72.1251   54.7796   42.9420 N   0  0  0  0  0  0
   73.3463   54.6872   42.1472 C   0  0  2  0  0  0
   73.2420   55.6007   40.9621 C   0  0  0  0  0  0
   71.7707   52.2097   47.7758 H   0  0  0  0  0  0
   70.0336   52.2693   47.3925 H   0  0  0  0  0  0
   71.1721   51.5184   46.2487 H   0  0  0  0  0  0
   69.3227   53.7855   45.6894 H   0  0  0  0  0  0
   70.4612   53.0345   44.5456 H   0  0  0  0  0  0
   70.5350   55.9090   45.5018 H   0  0  0  0  0  0
   69.9610   55.3503   43.9123 H   0  0  0  0  0  0
   74.2003   54.9803   42.7578 H   0  0  0  0  0  0
   74.1537   55.5317   40.3687 H   0  0  0  0  0  0
   72.3879   55.3076   40.3515 H   0  0  0  0  0  0
   73.1084   56.6268   41.3049 H   0  0  0  0  0  0
   71.3389   54.5067   42.3698 H   0  0  0  0  0  0
  1  2  1  0  0  0
  1  7  2  0  0  0
  1 16  1  0  0  0
  2  3  2  0  0  0
  2 13  1  0  0  0
  3  4  1  0  0  0
  3 10  1  0  0  0
  4  5  1  0  0  0
  4 15  1  0  0  0
  5  6  2  0  0  0
  5  7  1  0  0  0
  7  8  1  0  0  0
  8  9  3  0  0  0
 10 11  1  0  0  0
 10 14  1  0  0  0
 10 29  1  0  0  0
 11 12  1  0  0  0
 11 21  1  0  0  0
 12 13  1  0  0  0
 12 17  1  0  0  0
 12 18  1  0  0  0
 13 19  1  0  0  0
 13 20  1  0  0  0
 22 23  1  0  0  0
 22 31  1  0  0  0
 22 32  1  0  0  0
 22 33  1  0  0  0
 23 24  1  0  0  0
 24 25  1  0  0  0
 24 34  1  0  0  0
 24 35  1  0  0  0
 25 26  1  0  0  0
 25 36  1  0  0  0
 25 37  1  0  0  0
 26 27  2  0  0  0
 26 28  1  0  0  0
 28 29  1  0  0  0
 28 42  1  0  0  0
 29 30  1  0  0  0
 29 38  1  0  0  0
 30 39  1  0  0  0
 30 40  1  0  0  0
 30 41  1  0  0  0
M  END
> <b_m_subgroup_collapsed>
1

> <s_m_subgroup_title>
enumerate_142-out

> <s_m_subgroupid>
enumerate_142-out

$$$$
