12897-1
                    3D
 Schrodinger Suite 2024-3.
 37 38  0  0  1  0            999 V2000
   76.7152   51.2564   42.5117 C   0  0  0  0  0  0
   75.6469   51.8672   41.7091 C   0  0  0  0  0  0
   74.7156   52.5958   42.3599 C   0  0  0  0  0  0
   74.7624   52.7581   43.7471 N   0  0  0  0  0  0
   75.7023   52.2182   44.5484 C   0  0  0  0  0  0
   75.6665   52.3767   45.7684 O   0  0  0  0  0  0
   76.7303   51.4438   43.8559 C   0  0  0  0  0  0
   77.7066   50.8711   44.7216 C   0  0  0  0  0  0
   78.4723   50.4247   45.4646 N   0  0  0  0  0  0
   73.5301   53.2752   41.6754 C   0  0  2  0  0  0
   73.5536   53.2080   40.1403 N   0  0  0  0  0  0
   74.1629   51.9154   39.6394 C   0  0  0  0  0  0
   75.5862   51.7783   40.1806 C   0  0  0  0  0  0
   72.6664   52.6907   41.9933 H   0  0  0  0  0  0
   74.0228   53.3179   44.1572 H   0  0  0  0  0  0
   78.2659   50.0552   41.5379 R   0  0  0  0  0  0
   73.5564   51.0654   39.9852 H   0  0  0  0  0  0
   74.1880   51.9241   38.5497 H   0  0  0  0  0  0
   76.5095   51.6308   39.6012 H   0  0  0  0  0  0
   75.7161   52.8584   40.1126 H   0  0  0  0  0  0
   72.6100   53.2702   39.7856 H   0  0  0  0  0  0
   73.3120   54.9507   42.2353 S   0  0  0  0  0  0
   74.5454   55.3545   42.9192 O   0  0  0  0  0  0
   72.0040   55.0320   42.8944 O   0  0  0  0  0  0
   73.2094   55.8761   40.7182 C   0  0  0  0  0  0
   73.0217   57.3309   41.0316 C   0  0  0  0  0  0
   72.9352   58.1107   39.7532 C   0  0  0  0  0  0
   74.1861   57.8226   41.8394 C   0  0  0  0  0  0
   72.3633   55.5188   40.1312 H   0  0  0  0  0  0
   74.1290   55.7429   40.1484 H   0  0  0  0  0  0
   72.1021   57.4642   41.6014 H   0  0  0  0  0  0
   73.8549   57.9775   39.1834 H   0  0  0  0  0  0
   72.7989   59.1679   39.9809 H   0  0  0  0  0  0
   72.0891   57.7534   39.1662 H   0  0  0  0  0  0
   75.1057   57.6894   41.2696 H   0  0  0  0  0  0
   74.0497   58.8798   42.0672 H   0  0  0  0  0  0
   74.2489   57.2560   42.7684 H   0  0  0  0  0  0
  1  2  1  0  0  0
  1  7  2  0  0  0
  1 16  1  0  0  0
  2  3  2  0  0  0
  2 13  1  0  0  0
  3  4  1  0  0  0
  3 10  1  0  0  0
  4  5  1  0  0  0
  4 15  1  0  0  0
  5  6  2  0  0  0
  5  7  1  0  0  0
  7  8  1  0  0  0
  8  9  3  0  0  0
 10 11  1  0  0  0
 10 14  1  0  0  0
 10 22  1  0  0  0
 11 12  1  0  0  0
 11 21  1  0  0  0
 12 13  1  0  0  0
 12 17  1  0  0  0
 12 18  1  0  0  0
 13 19  1  0  0  0
 13 20  1  0  0  0
 22 23  2  0  0  0
 22 24  2  0  0  0
 22 25  1  0  0  0
 25 26  1  0  0  0
 25 29  1  0  0  0
 25 30  1  0  0  0
 26 27  1  0  0  0
 26 28  1  0  0  0
 26 31  1  0  0  0
 27 32  1  0  0  0
 27 33  1  0  0  0
 27 34  1  0  0  0
 28 35  1  0  0  0
 28 36  1  0  0  0
 28 37  1  0  0  0
M  END
> <b_m_subgroup_collapsed>
1

> <s_m_subgroup_title>
enumerate_142-out

> <s_m_subgroupid>
enumerate_142-out

$$$$
