3129-1
                    3D
 Schrodinger Suite 2024-3.
 34 36  0  0  1  0            999 V2000
   76.7152   51.2564   42.5117 C   0  0  0  0  0  0
   75.6469   51.8672   41.7091 C   0  0  0  0  0  0
   74.7156   52.5958   42.3599 C   0  0  0  0  0  0
   74.7624   52.7581   43.7471 N   0  0  0  0  0  0
   75.7023   52.2182   44.5484 C   0  0  0  0  0  0
   75.6665   52.3767   45.7684 O   0  0  0  0  0  0
   76.7303   51.4438   43.8559 C   0  0  0  0  0  0
   77.7066   50.8711   44.7216 C   0  0  0  0  0  0
   78.4723   50.4247   45.4646 N   0  0  0  0  0  0
   73.5301   53.2752   41.6754 C   0  0  2  0  0  0
   73.5536   53.2080   40.1403 N   0  0  0  0  0  0
   74.1629   51.9154   39.6394 C   0  0  0  0  0  0
   75.5862   51.7783   40.1806 C   0  0  0  0  0  0
   72.6664   52.6907   41.9933 H   0  0  0  0  0  0
   74.0228   53.3179   44.1572 H   0  0  0  0  0  0
   78.2659   50.0552   41.5379 R   0  0  0  0  0  0
   73.5564   51.0654   39.9852 H   0  0  0  0  0  0
   74.1880   51.9241   38.5497 H   0  0  0  0  0  0
   76.5095   51.6308   39.6012 H   0  0  0  0  0  0
   75.7161   52.8584   40.1126 H   0  0  0  0  0  0
   72.6100   53.2702   39.7856 H   0  0  0  0  0  0
   73.3463   54.6872   42.1472 C   0  0  0  0  0  0
   72.2460   55.0358   42.9302 C   0  0  0  0  0  0
   72.0961   56.3542   43.3570 C   0  0  0  0  0  0
   72.9899   57.3234   43.0365 N   0  0  0  0  0  0
   74.0570   56.9702   42.2733 C   0  0  0  0  0  0
   75.0311   58.0586   41.9321 C   0  0  0  0  0  0
   74.2718   55.6727   41.8107 C   0  0  0  0  0  0
   71.5133   54.2895   43.2051 H   0  0  0  0  0  0
   71.2476   56.6431   43.9659 H   0  0  0  0  0  0
   75.8350   57.6482   41.3208 H   0  0  0  0  0  0
   74.5182   58.8446   41.3778 H   0  0  0  0  0  0
   75.4481   58.4738   42.8496 H   0  0  0  0  0  0
   75.1367   55.4383   41.2053 H   0  0  0  0  0  0
  1  2  1  0  0  0
  1  7  2  0  0  0
  1 16  1  0  0  0
  2  3  2  0  0  0
  2 13  1  0  0  0
  3  4  1  0  0  0
  3 10  1  0  0  0
  4  5  1  0  0  0
  4 15  1  0  0  0
  5  6  2  0  0  0
  5  7  1  0  0  0
  7  8  1  0  0  0
  8  9  3  0  0  0
 10 11  1  0  0  0
 10 14  1  0  0  0
 10 22  1  0  0  0
 11 12  1  0  0  0
 11 21  1  0  0  0
 12 13  1  0  0  0
 12 17  1  0  0  0
 12 18  1  0  0  0
 13 19  1  0  0  0
 13 20  1  0  0  0
 22 23  2  0  0  0
 22 28  1  0  0  0
 23 24  1  0  0  0
 23 29  1  0  0  0
 24 25  2  0  0  0
 24 30  1  0  0  0
 25 26  1  0  0  0
 26 27  1  0  0  0
 26 28  2  0  0  0
 27 31  1  0  0  0
 27 32  1  0  0  0
 27 33  1  0  0  0
 28 34  1  0  0  0
M  END
> <b_m_subgroup_collapsed>
1

> <s_m_subgroup_title>
enumerate_141-out

> <s_m_subgroupid>
enumerate_141-out

$$$$
