29059-4
                    3D
 Schrodinger Suite 2024-3.
 52 55  0  0  1  0            999 V2000
   76.7152   51.2564   42.5117 C   0  0  0  0  0  0
   75.6469   51.8672   41.7091 C   0  0  0  0  0  0
   74.7156   52.5958   42.3599 C   0  0  0  0  0  0
   74.7624   52.7581   43.7471 N   0  0  0  0  0  0
   75.7023   52.2182   44.5484 C   0  0  0  0  0  0
   75.6665   52.3767   45.7684 O   0  0  0  0  0  0
   76.7303   51.4438   43.8559 C   0  0  0  0  0  0
   77.7066   50.8711   44.7216 C   0  0  0  0  0  0
   78.4723   50.4247   45.4646 N   0  0  0  0  0  0
   73.5301   53.2752   41.6754 C   0  0  2  0  0  0
   73.5536   53.2080   40.1403 N   0  0  0  0  0  0
   74.1629   51.9154   39.6394 C   0  0  0  0  0  0
   75.5862   51.7783   40.1806 C   0  0  0  0  0  0
   72.6664   52.6907   41.9933 H   0  0  0  0  0  0
   74.0228   53.3179   44.1572 H   0  0  0  0  0  0
   78.2659   50.0552   41.5379 R   0  0  0  0  0  0
   73.5564   51.0654   39.9852 H   0  0  0  0  0  0
   74.1880   51.9241   38.5497 H   0  0  0  0  0  0
   76.5095   51.6308   39.6012 H   0  0  0  0  0  0
   75.7161   52.8584   40.1126 H   0  0  0  0  0  0
   72.6100   53.2702   39.7856 H   0  0  0  0  0  0
   73.3463   54.6872   42.1472 C   0  0  2  0  0  0
   72.0357   55.2729   41.5960 C   0  0  0  0  0  0
   72.3996   56.6536   41.0446 C   0  0  0  0  0  0
   73.8419   56.4879   40.5697 C   0  0  0  0  0  0
   74.4777   55.5961   41.6388 C   0  0  2  0  0  0
   75.5548   54.8828   41.1536 O   0  0  0  0  0  0
   76.7520   55.1255   41.7958 C   0  0  0  0  0  0
   77.8316   54.2910   41.1729 C   0  0  0  0  0  0
   78.0246   54.6049   39.6874 C   0  0  0  0  0  0
   79.4741   54.2066   39.4162 C   0  0  0  0  0  0
   80.2175   54.6537   40.6772 C   0  0  0  0  0  0
   79.2052   54.5161   41.8265 C   0  0  0  0  0  0
   73.3393   54.6588   43.2386 H   0  0  0  0  0  0
   71.6636   54.6423   40.7857 H   0  0  0  0  0  0
   71.2478   55.3224   42.3497 H   0  0  0  0  0  0
   72.3528   57.3994   41.8412 H   0  0  0  0  0  0
   71.7273   56.9822   40.2501 H   0  0  0  0  0  0
   74.3608   57.4407   40.4508 H   0  0  0  0  0  0
   73.8600   55.9830   39.6014 H   0  0  0  0  0  0
   74.8477   56.2156   42.4586 H   0  0  0  0  0  0
   77.0080   56.1807   41.7006 H   0  0  0  0  0  0
   76.6570   54.8683   42.8507 H   0  0  0  0  0  0
   77.5358   53.2463   41.2902 H   0  0  0  0  0  0
   77.3139   54.0780   39.0481 H   0  0  0  0  0  0
   77.8925   55.6745   39.5102 H   0  0  0  0  0  0
   79.5478   53.1229   39.3022 H   0  0  0  0  0  0
   79.8744   54.6584   38.5069 H   0  0  0  0  0  0
   81.1281   54.0767   40.8479 H   0  0  0  0  0  0
   80.5161   55.6991   40.5740 H   0  0  0  0  0  0
   79.2059   55.4146   42.4466 H   0  0  0  0  0  0
   79.4597   53.6793   42.4800 H   0  0  0  0  0  0
  1  2  1  0  0  0
  1  7  2  0  0  0
  1 16  1  0  0  0
  2  3  2  0  0  0
  2 13  1  0  0  0
  3  4  1  0  0  0
  3 10  1  0  0  0
  4  5  1  0  0  0
  4 15  1  0  0  0
  5  6  2  0  0  0
  5  7  1  0  0  0
  7  8  1  0  0  0
  8  9  3  0  0  0
 10 11  1  0  0  0
 10 14  1  0  0  0
 10 22  1  0  0  0
 11 12  1  0  0  0
 11 21  1  0  0  0
 12 13  1  0  0  0
 12 17  1  0  0  0
 12 18  1  0  0  0
 13 19  1  0  0  0
 13 20  1  0  0  0
 22 23  1  0  0  0
 22 26  1  0  0  0
 22 34  1  0  0  0
 23 24  1  0  0  0
 23 35  1  0  0  0
 23 36  1  0  0  0
 24 25  1  0  0  0
 24 37  1  0  0  0
 24 38  1  0  0  0
 25 26  1  0  0  0
 25 39  1  0  0  0
 25 40  1  0  0  0
 26 27  1  0  0  0
 26 41  1  0  0  0
 27 28  1  0  0  0
 28 29  1  0  0  0
 28 42  1  0  0  0
 28 43  1  0  0  0
 29 30  1  0  0  0
 29 33  1  0  0  0
 29 44  1  0  0  0
 30 31  1  0  0  0
 30 45  1  0  0  0
 30 46  1  0  0  0
 31 32  1  0  0  0
 31 47  1  0  0  0
 31 48  1  0  0  0
 32 33  1  0  0  0
 32 49  1  0  0  0
 32 50  1  0  0  0
 33 51  1  0  0  0
 33 52  1  0  0  0
M  END
> <b_m_subgroup_collapsed>
1

> <s_m_subgroup_title>
enumerate_141-out

> <s_m_subgroupid>
enumerate_141-out

$$$$
