29306-5
                    3D
 Schrodinger Suite 2024-3.
 43 45  0  0  1  0            999 V2000
   76.7152   51.2564   42.5117 C   0  0  0  0  0  0
   75.6469   51.8672   41.7091 C   0  0  0  0  0  0
   74.7156   52.5958   42.3599 C   0  0  0  0  0  0
   74.7624   52.7581   43.7471 N   0  0  0  0  0  0
   75.7023   52.2182   44.5484 C   0  0  0  0  0  0
   75.6665   52.3767   45.7684 O   0  0  0  0  0  0
   76.7303   51.4438   43.8559 C   0  0  0  0  0  0
   77.7066   50.8711   44.7216 C   0  0  0  0  0  0
   78.4723   50.4247   45.4646 N   0  0  0  0  0  0
   73.5301   53.2752   41.6754 C   0  0  2  0  0  0
   73.5536   53.2080   40.1403 N   0  0  0  0  0  0
   74.1629   51.9154   39.6394 C   0  0  0  0  0  0
   75.5862   51.7783   40.1806 C   0  0  0  0  0  0
   72.6664   52.6907   41.9933 H   0  0  0  0  0  0
   74.0228   53.3179   44.1572 H   0  0  0  0  0  0
   78.2659   50.0552   41.5379 R   0  0  0  0  0  0
   73.5564   51.0654   39.9852 H   0  0  0  0  0  0
   74.1880   51.9241   38.5497 H   0  0  0  0  0  0
   76.5095   51.6308   39.6012 H   0  0  0  0  0  0
   75.7161   52.8584   40.1126 H   0  0  0  0  0  0
   72.6100   53.2702   39.7856 H   0  0  0  0  0  0
   73.3463   54.6872   42.1472 C   0  0  2  0  0  0
   71.9959   55.2270   41.6347 C   0  0  0  0  0  0
   71.9901   55.3903   40.1013 C   0  0  1  0  0  0
   70.6934   55.9972   39.6541 C   0  0  0  0  0  0
   73.1725   56.2516   39.6135 C   0  0  2  0  0  0
   73.1787   56.3085   38.2347 O   0  0  0  0  0  0
   74.5230   55.7117   40.1261 C   0  0  2  0  0  0
   74.7840   54.4927   39.5341 O   0  0  0  0  0  0
   74.5287   55.5484   41.6594 C   0  0  0  0  0  0
   73.3414   54.6422   43.2376 H   0  0  0  0  0  0
   71.1865   54.5630   41.9430 H   0  0  0  0  0  0
   71.7894   56.1914   42.1030 H   0  0  0  0  0  0
   72.0401   54.4061   39.6315 H   0  0  0  0  0  0
   70.5855   56.9887   40.0939 H   0  0  0  0  0  0
   70.6863   56.0791   38.5672 H   0  0  0  0  0  0
   69.8660   55.3649   39.9762 H   0  0  0  0  0  0
   73.0388   57.2792   39.9569 H   0  0  0  0  0  0
   75.3323   56.3757   39.8177 H   0  0  0  0  0  0
   74.4788   56.5326   42.1292 H   0  0  0  0  0  0
   75.4722   55.1069   41.9848 H   0  0  0  0  0  0
   73.0663   57.2242   37.8490 H   0  0  0  0  0  0
   75.6124   54.4633   38.9748 H   0  0  0  0  0  0
  1  2  1  0  0  0
  1  7  2  0  0  0
  1 16  1  0  0  0
  2  3  2  0  0  0
  2 13  1  0  0  0
  3  4  1  0  0  0
  3 10  1  0  0  0
  4  5  1  0  0  0
  4 15  1  0  0  0
  5  6  2  0  0  0
  5  7  1  0  0  0
  7  8  1  0  0  0
  8  9  3  0  0  0
 10 11  1  0  0  0
 10 14  1  0  0  0
 10 22  1  0  0  0
 11 12  1  0  0  0
 11 21  1  0  0  0
 12 13  1  0  0  0
 12 17  1  0  0  0
 12 18  1  0  0  0
 13 19  1  0  0  0
 13 20  1  0  0  0
 22 23  1  0  0  0
 22 30  1  0  0  0
 22 31  1  0  0  0
 23 24  1  0  0  0
 23 32  1  0  0  0
 23 33  1  0  0  0
 24 25  1  0  0  0
 24 26  1  0  0  0
 24 34  1  0  0  0
 25 35  1  0  0  0
 25 36  1  0  0  0
 25 37  1  0  0  0
 26 27  1  0  0  0
 26 28  1  0  0  0
 26 38  1  0  0  0
 27 42  1  0  0  0
 28 29  1  0  0  0
 28 30  1  0  0  0
 28 39  1  0  0  0
 29 43  1  0  0  0
 30 40  1  0  0  0
 30 41  1  0  0  0
M  END
> <b_m_subgroup_collapsed>
1

> <s_m_subgroup_title>
enumerate_141-out

> <s_m_subgroupid>
enumerate_141-out

$$$$
