24554-1
                    3D
 Schrodinger Suite 2024-3.
 43 45  0  0  1  0            999 V2000
   76.7152   51.2564   42.5117 C   0  0  0  0  0  0
   75.6469   51.8672   41.7091 C   0  0  0  0  0  0
   74.7156   52.5958   42.3599 C   0  0  0  0  0  0
   74.7624   52.7581   43.7471 N   0  0  0  0  0  0
   75.7023   52.2182   44.5484 C   0  0  0  0  0  0
   75.6665   52.3767   45.7684 O   0  0  0  0  0  0
   76.7303   51.4438   43.8559 C   0  0  0  0  0  0
   77.7066   50.8711   44.7216 C   0  0  0  0  0  0
   78.4723   50.4247   45.4646 N   0  0  0  0  0  0
   73.5301   53.2752   41.6754 C   0  0  2  0  0  0
   73.5536   53.2080   40.1403 N   0  0  0  0  0  0
   74.1629   51.9154   39.6394 C   0  0  0  0  0  0
   75.5862   51.7783   40.1806 C   0  0  0  0  0  0
   72.6664   52.6907   41.9933 H   0  0  0  0  0  0
   74.0228   53.3179   44.1572 H   0  0  0  0  0  0
   78.2659   50.0552   41.5379 R   0  0  0  0  0  0
   73.5564   51.0654   39.9852 H   0  0  0  0  0  0
   74.1880   51.9241   38.5497 H   0  0  0  0  0  0
   76.5095   51.6308   39.6012 H   0  0  0  0  0  0
   75.7161   52.8584   40.1126 H   0  0  0  0  0  0
   72.6100   53.2702   39.7856 H   0  0  0  0  0  0
   73.3610   54.5742   42.1095 O   0  0  0  0  0  0
   72.2342   54.7910   42.8760 C   0  0  2  0  0  0
   71.0124   54.4420   42.0788 C   0  0  0  0  0  0
   72.1732   56.2348   43.2782 C   0  0  0  0  0  0
   70.9115   56.5129   44.1126 C   0  0  0  0  0  0
   70.9118   57.9488   44.6713 C   0  0  0  0  0  0
   72.1143   58.1832   45.4103 O   0  0  0  0  0  0
   73.3111   58.0600   44.6360 C   0  0  0  0  0  0
   73.4277   56.6295   44.0756 C   0  0  0  0  0  0
   72.2762   54.1666   43.7685 H   0  0  0  0  0  0
   70.1224   54.6132   42.6842 H   0  0  0  0  0  0
   70.9704   55.0664   41.1863 H   0  0  0  0  0  0
   71.0567   53.3929   41.7865 H   0  0  0  0  0  0
   72.1330   56.8086   42.3497 H   0  0  0  0  0  0
   70.0151   56.3446   43.5139 H   0  0  0  0  0  0
   70.8587   55.8080   44.9440 H   0  0  0  0  0  0
   70.8136   58.6806   43.8664 H   0  0  0  0  0  0
   70.0544   58.0967   45.3295 H   0  0  0  0  0  0
   73.3176   58.7966   43.8296 H   0  0  0  0  0  0
   74.1701   58.2874   45.2689 H   0  0  0  0  0  0
   73.5698   55.9336   44.9041 H   0  0  0  0  0  0
   74.3179   56.5440   43.4506 H   0  0  0  0  0  0
  1  2  1  0  0  0
  1  7  2  0  0  0
  1 16  1  0  0  0
  2  3  2  0  0  0
  2 13  1  0  0  0
  3  4  1  0  0  0
  3 10  1  0  0  0
  4  5  1  0  0  0
  4 15  1  0  0  0
  5  6  2  0  0  0
  5  7  1  0  0  0
  7  8  1  0  0  0
  8  9  3  0  0  0
 10 11  1  0  0  0
 10 14  1  0  0  0
 10 22  1  0  0  0
 11 12  1  0  0  0
 11 21  1  0  0  0
 12 13  1  0  0  0
 12 17  1  0  0  0
 12 18  1  0  0  0
 13 19  1  0  0  0
 13 20  1  0  0  0
 22 23  1  0  0  0
 23 24  1  0  0  0
 23 25  1  0  0  0
 23 31  1  0  0  0
 24 32  1  0  0  0
 24 33  1  0  0  0
 24 34  1  0  0  0
 25 26  1  0  0  0
 25 30  1  0  0  0
 25 35  1  0  0  0
 26 27  1  0  0  0
 26 36  1  0  0  0
 26 37  1  0  0  0
 27 28  1  0  0  0
 27 38  1  0  0  0
 27 39  1  0  0  0
 28 29  1  0  0  0
 29 30  1  0  0  0
 29 40  1  0  0  0
 29 41  1  0  0  0
 30 42  1  0  0  0
 30 43  1  0  0  0
M  END
> <b_m_subgroup_collapsed>
1

> <s_m_subgroup_title>
enumerate_142-out

> <s_m_subgroupid>
enumerate_142-out

$$$$
