27105-1
                    3D
 Schrodinger Suite 2024-3.
 40 42  0  0  1  0            999 V2000
   76.7152   51.2564   42.5117 C   0  0  0  0  0  0
   75.6469   51.8672   41.7091 C   0  0  0  0  0  0
   74.7156   52.5958   42.3599 C   0  0  0  0  0  0
   74.7624   52.7581   43.7471 N   0  0  0  0  0  0
   75.7023   52.2182   44.5484 C   0  0  0  0  0  0
   75.6665   52.3767   45.7684 O   0  0  0  0  0  0
   76.7303   51.4438   43.8559 C   0  0  0  0  0  0
   77.7066   50.8711   44.7216 C   0  0  0  0  0  0
   78.4723   50.4247   45.4646 N   0  0  0  0  0  0
   73.5301   53.2752   41.6754 C   0  0  2  0  0  0
   73.5536   53.2080   40.1403 N   0  0  0  0  0  0
   74.1629   51.9154   39.6394 C   0  0  0  0  0  0
   75.5862   51.7783   40.1806 C   0  0  0  0  0  0
   72.6664   52.6907   41.9933 H   0  0  0  0  0  0
   74.0228   53.3179   44.1572 H   0  0  0  0  0  0
   78.2659   50.0552   41.5379 R   0  0  0  0  0  0
   73.5564   51.0654   39.9852 H   0  0  0  0  0  0
   74.1880   51.9241   38.5497 H   0  0  0  0  0  0
   76.5095   51.6308   39.6012 H   0  0  0  0  0  0
   75.7161   52.8584   40.1126 H   0  0  0  0  0  0
   72.6100   53.2702   39.7856 H   0  0  0  0  0  0
   69.6175   59.5152   44.4314 C   0  0  0  0  0  0
   70.4128   58.4682   44.8506 O   0  0  0  0  0  0
   71.4816   58.1812   44.0261 C   0  0  1  0  0  0
   72.2355   56.8826   44.3432 C   0  0  0  0  0  0
   72.3526   56.6583   42.8295 C   0  0  1  0  0  0
   72.1796   55.2417   42.3676 C   0  0  0  0  0  0
   71.1028   54.6727   42.2145 O   0  0  0  0  0  0
   73.3512   54.6495   42.1346 N   0  0  0  0  0  0
   71.1252   57.5650   42.6665 C   0  0  0  0  0  0
   68.8061   59.6631   45.1441 H   0  0  0  0  0  0
   70.2163   60.4239   44.3690 H   0  0  0  0  0  0
   69.2020   59.2857   43.4502 H   0  0  0  0  0  0
   72.1232   59.0636   43.9603 H   0  0  0  0  0  0
   71.6314   56.1319   44.8589 H   0  0  0  0  0  0
   73.1797   57.0028   44.8776 H   0  0  0  0  0  0
   73.2670   57.0636   42.3890 H   0  0  0  0  0  0
   71.1523   58.2488   41.8160 H   0  0  0  0  0  0
   70.1733   57.0280   42.6570 H   0  0  0  0  0  0
   74.2583   55.0792   42.2473 H   0  0  0  0  0  0
  1  2  1  0  0  0
  1  7  2  0  0  0
  1 16  1  0  0  0
  2  3  2  0  0  0
  2 13  1  0  0  0
  3  4  1  0  0  0
  3 10  1  0  0  0
  4  5  1  0  0  0
  4 15  1  0  0  0
  5  6  2  0  0  0
  5  7  1  0  0  0
  7  8  1  0  0  0
  8  9  3  0  0  0
 10 11  1  0  0  0
 10 14  1  0  0  0
 10 29  1  0  0  0
 11 12  1  0  0  0
 11 21  1  0  0  0
 12 13  1  0  0  0
 12 17  1  0  0  0
 12 18  1  0  0  0
 13 19  1  0  0  0
 13 20  1  0  0  0
 22 23  1  0  0  0
 22 31  1  0  0  0
 22 32  1  0  0  0
 22 33  1  0  0  0
 23 24  1  0  0  0
 24 25  1  0  0  0
 24 30  1  0  0  0
 24 34  1  0  0  0
 25 26  1  0  0  0
 25 35  1  0  0  0
 25 36  1  0  0  0
 26 27  1  0  0  0
 26 30  1  0  0  0
 26 37  1  0  0  0
 27 28  2  0  0  0
 27 29  1  0  0  0
 29 40  1  0  0  0
 30 38  1  0  0  0
 30 39  1  0  0  0
M  END
> <b_m_subgroup_collapsed>
1

> <s_m_subgroup_title>
enumerate_142-out

> <s_m_subgroupid>
enumerate_142-out

$$$$
