3032-1
                    3D
 Schrodinger Suite 2024-3.
 44 46  0  0  1  0            999 V2000
   76.7152   51.2564   42.5117 C   0  0  0  0  0  0
   75.6469   51.8672   41.7091 C   0  0  0  0  0  0
   74.7156   52.5958   42.3599 C   0  0  0  0  0  0
   74.7624   52.7581   43.7471 N   0  0  0  0  0  0
   75.7023   52.2182   44.5484 C   0  0  0  0  0  0
   75.6665   52.3767   45.7684 O   0  0  0  0  0  0
   76.7303   51.4438   43.8559 C   0  0  0  0  0  0
   77.7066   50.8711   44.7216 C   0  0  0  0  0  0
   78.4723   50.4247   45.4646 N   0  0  0  0  0  0
   73.5301   53.2752   41.6754 C   0  0  2  0  0  0
   73.5536   53.2080   40.1403 N   0  0  0  0  0  0
   74.1629   51.9154   39.6394 C   0  0  0  0  0  0
   75.5862   51.7783   40.1806 C   0  0  0  0  0  0
   72.6664   52.6907   41.9933 H   0  0  0  0  0  0
   74.0228   53.3179   44.1572 H   0  0  0  0  0  0
   78.2659   50.0552   41.5379 R   0  0  0  0  0  0
   73.5564   51.0654   39.9852 H   0  0  0  0  0  0
   74.1880   51.9241   38.5497 H   0  0  0  0  0  0
   76.5095   51.6308   39.6012 H   0  0  0  0  0  0
   75.7161   52.8584   40.1126 H   0  0  0  0  0  0
   72.6100   53.2702   39.7856 H   0  0  0  0  0  0
   73.3463   54.6872   42.1472 C   0  0  0  0  0  0
   74.5776   55.4991   41.6843 C   0  0  0  0  0  0
   74.6828   56.9237   42.2767 C   0  0  0  0  0  0
   74.2496   58.0744   41.3413 C   0  0  0  0  0  0
   72.9581   57.8717   40.5217 C   0  0  0  0  0  0
   71.6413   57.7434   41.3159 C   0  0  0  0  0  0
   71.4914   56.5187   42.2456 C   0  0  0  0  0  0
   71.9604   55.1670   41.6588 C   0  0  0  0  0  0
   73.3439   54.6224   43.2369 H   0  0  0  0  0  0
   75.4612   54.9426   42.0027 H   0  0  0  0  0  0
   74.6424   55.5173   40.5955 H   0  0  0  0  0  0
   74.1500   56.9828   43.2253 H   0  0  0  0  0  0
   75.7233   57.1083   42.5510 H   0  0  0  0  0  0
   74.1732   58.9960   41.9209 H   0  0  0  0  0  0
   75.0603   58.2507   40.6318 H   0  0  0  0  0  0
   72.8555   58.7309   39.8563 H   0  0  0  0  0  0
   73.0723   57.0235   39.8470 H   0  0  0  0  0  0
   71.4740   58.6535   41.8945 H   0  0  0  0  0  0
   70.8261   57.7134   40.5905 H   0  0  0  0  0  0
   71.9742   56.7067   43.2041 H   0  0  0  0  0  0
   70.4327   56.4369   42.4994 H   0  0  0  0  0  0
   71.9140   55.1710   40.5689 H   0  0  0  0  0  0
   71.2379   54.4066   41.9615 H   0  0  0  0  0  0
  1  2  1  0  0  0
  1  7  2  0  0  0
  1 16  1  0  0  0
  2  3  2  0  0  0
  2 13  1  0  0  0
  3  4  1  0  0  0
  3 10  1  0  0  0
  4  5  1  0  0  0
  4 15  1  0  0  0
  5  6  2  0  0  0
  5  7  1  0  0  0
  7  8  1  0  0  0
  8  9  3  0  0  0
 10 11  1  0  0  0
 10 14  1  0  0  0
 10 22  1  0  0  0
 11 12  1  0  0  0
 11 21  1  0  0  0
 12 13  1  0  0  0
 12 17  1  0  0  0
 12 18  1  0  0  0
 13 19  1  0  0  0
 13 20  1  0  0  0
 22 23  1  0  0  0
 22 29  1  0  0  0
 22 30  1  0  0  0
 23 24  1  0  0  0
 23 31  1  0  0  0
 23 32  1  0  0  0
 24 25  1  0  0  0
 24 33  1  0  0  0
 24 34  1  0  0  0
 25 26  1  0  0  0
 25 35  1  0  0  0
 25 36  1  0  0  0
 26 27  1  0  0  0
 26 37  1  0  0  0
 26 38  1  0  0  0
 27 28  1  0  0  0
 27 39  1  0  0  0
 27 40  1  0  0  0
 28 29  1  0  0  0
 28 41  1  0  0  0
 28 42  1  0  0  0
 29 43  1  0  0  0
 29 44  1  0  0  0
M  END
> <b_m_subgroup_collapsed>
1

> <s_m_subgroup_title>
enumerate_142-out

> <s_m_subgroupid>
enumerate_142-out

$$$$
