12888-1
                    3D
 Schrodinger Suite 2024-3.
 43 44  0  0  1  0            999 V2000
   76.7152   51.2564   42.5117 C   0  0  0  0  0  0
   75.6469   51.8672   41.7091 C   0  0  0  0  0  0
   74.7156   52.5958   42.3599 C   0  0  0  0  0  0
   74.7624   52.7581   43.7471 N   0  0  0  0  0  0
   75.7023   52.2182   44.5484 C   0  0  0  0  0  0
   75.6665   52.3767   45.7684 O   0  0  0  0  0  0
   76.7303   51.4438   43.8559 C   0  0  0  0  0  0
   77.7066   50.8711   44.7216 C   0  0  0  0  0  0
   78.4723   50.4247   45.4646 N   0  0  0  0  0  0
   73.5301   53.2752   41.6754 C   0  0  2  0  0  0
   73.5536   53.2080   40.1403 N   0  0  0  0  0  0
   74.1629   51.9154   39.6394 C   0  0  0  0  0  0
   75.5862   51.7783   40.1806 C   0  0  0  0  0  0
   72.6664   52.6907   41.9933 H   0  0  0  0  0  0
   74.0228   53.3179   44.1572 H   0  0  0  0  0  0
   78.2659   50.0552   41.5379 R   0  0  0  0  0  0
   73.5564   51.0654   39.9852 H   0  0  0  0  0  0
   74.1880   51.9241   38.5497 H   0  0  0  0  0  0
   76.5095   51.6308   39.6012 H   0  0  0  0  0  0
   75.7161   52.8584   40.1126 H   0  0  0  0  0  0
   72.6100   53.2702   39.7856 H   0  0  0  0  0  0
   72.8131   58.8953   42.0629 C   0  0  0  0  0  0
   72.9969   57.4834   41.5911 C   0  0  0  0  0  0
   71.8648   56.6371   42.0932 C   0  0  1  0  0  0
   70.5670   57.1750   41.5674 C   0  0  0  0  0  0
   72.0486   55.2251   41.6214 C   0  0  2  0  0  0
   70.9164   54.3788   42.1235 C   0  0  0  0  0  0
   73.3463   54.6872   42.1472 C   0  0  0  0  0  0
   73.6358   59.5103   41.6981 H   0  0  0  0  0  0
   72.8000   58.9155   43.1527 H   0  0  0  0  0  0
   71.8701   59.2862   41.6809 H   0  0  0  0  0  0
   73.0101   57.4632   40.5014 H   0  0  0  0  0  0
   73.9400   57.0925   41.9732 H   0  0  0  0  0  0
   71.8516   56.6572   43.1830 H   0  0  0  0  0  0
   70.5802   57.1549   40.4777 H   0  0  0  0  0  0
   69.7443   56.5600   41.9323 H   0  0  0  0  0  0
   70.4335   58.2010   41.9103 H   0  0  0  0  0  0
   72.0617   55.2050   40.5317 H   0  0  0  0  0  0
   70.9032   54.3990   43.2132 H   0  0  0  0  0  0
   69.9734   54.7697   41.7414 H   0  0  0  0  0  0
   71.0500   53.3528   41.7807 H   0  0  0  0  0  0
   74.1690   55.3021   41.7824 H   0  0  0  0  0  0
   73.3331   54.7073   43.2369 H   0  0  0  0  0  0
  1  2  1  0  0  0
  1  7  2  0  0  0
  1 16  1  0  0  0
  2  3  2  0  0  0
  2 13  1  0  0  0
  3  4  1  0  0  0
  3 10  1  0  0  0
  4  5  1  0  0  0
  4 15  1  0  0  0
  5  6  2  0  0  0
  5  7  1  0  0  0
  7  8  1  0  0  0
  8  9  3  0  0  0
 10 11  1  0  0  0
 10 14  1  0  0  0
 10 28  1  0  0  0
 11 12  1  0  0  0
 11 21  1  0  0  0
 12 13  1  0  0  0
 12 17  1  0  0  0
 12 18  1  0  0  0
 13 19  1  0  0  0
 13 20  1  0  0  0
 22 23  1  0  0  0
 22 29  1  0  0  0
 22 30  1  0  0  0
 22 31  1  0  0  0
 23 24  1  0  0  0
 23 32  1  0  0  0
 23 33  1  0  0  0
 24 25  1  0  0  0
 24 26  1  0  0  0
 24 34  1  0  0  0
 25 35  1  0  0  0
 25 36  1  0  0  0
 25 37  1  0  0  0
 26 27  1  0  0  0
 26 28  1  0  0  0
 26 38  1  0  0  0
 27 39  1  0  0  0
 27 40  1  0  0  0
 27 41  1  0  0  0
 28 42  1  0  0  0
 28 43  1  0  0  0
M  END
> <b_m_subgroup_collapsed>
1

> <s_m_subgroup_title>
enumerate_142-out

> <s_m_subgroupid>
enumerate_142-out

$$$$
