9786-4
                    3D
 Schrodinger Suite 2024-3.
 49 52  0  0  1  0            999 V2000
   76.7152   51.2564   42.5117 C   0  0  0  0  0  0
   75.6469   51.8672   41.7091 C   0  0  0  0  0  0
   74.7156   52.5958   42.3599 C   0  0  0  0  0  0
   74.7624   52.7581   43.7471 N   0  0  0  0  0  0
   75.7023   52.2182   44.5484 C   0  0  0  0  0  0
   75.6665   52.3767   45.7684 O   0  0  0  0  0  0
   76.7303   51.4438   43.8559 C   0  0  0  0  0  0
   77.7066   50.8711   44.7216 C   0  0  0  0  0  0
   78.4723   50.4247   45.4646 N   0  0  0  0  0  0
   73.5301   53.2752   41.6754 C   0  0  2  0  0  0
   73.5536   53.2080   40.1403 N   0  0  0  0  0  0
   74.1629   51.9154   39.6394 C   0  0  0  0  0  0
   75.5862   51.7783   40.1806 C   0  0  0  0  0  0
   72.6664   52.6907   41.9933 H   0  0  0  0  0  0
   74.0228   53.3179   44.1572 H   0  0  0  0  0  0
   78.2659   50.0552   41.5379 R   0  0  0  0  0  0
   73.5564   51.0654   39.9852 H   0  0  0  0  0  0
   74.1880   51.9241   38.5497 H   0  0  0  0  0  0
   76.5095   51.6308   39.6012 H   0  0  0  0  0  0
   75.7161   52.8584   40.1126 H   0  0  0  0  0  0
   72.6100   53.2702   39.7856 H   0  0  0  0  0  0
   73.3463   54.6872   42.1472 C   0  0  2  0  0  0
   72.0637   55.2759   41.5548 C   0  0  0  0  0  0
   72.4622   55.8401   40.1809 C   0  0  0  0  0  0
   73.9995   55.8444   40.1408 C   0  0  0  0  0  0
   74.4513   55.5751   41.5782 C   0  0  2  0  0  0
   75.6982   54.9876   41.6453 O   0  0  0  0  0  0
   76.6392   55.6970   42.3633 C   0  0  0  0  0  0
   77.9404   54.9507   42.3562 C   0  0  0  0  0  0
   78.5104   54.5365   43.5542 C   0  0  0  0  0  0
   79.7160   53.8450   43.5477 C   0  0  0  0  0  0
   80.3516   53.5678   42.3432 C   0  0  0  0  0  0
   79.7816   53.9820   41.1452 C   0  0  0  0  0  0
   78.5760   54.6735   41.1518 C   0  0  0  0  0  0
   73.3381   54.6682   43.2385 H   0  0  0  0  0  0
   71.2609   54.5393   41.4898 H   0  0  0  0  0  0
   71.7040   56.0851   42.1939 H   0  0  0  0  0  0
   72.0598   56.8464   40.0491 H   0  0  0  0  0  0
   72.0602   55.2288   39.3706 H   0  0  0  0  0  0
   74.4068   56.7771   39.7463 H   0  0  0  0  0  0
   74.3522   55.0413   39.4903 H   0  0  0  0  0  0
   74.5013   56.5122   42.1369 H   0  0  0  0  0  0
   76.7802   56.6774   41.9082 H   0  0  0  0  0  0
   76.2961   55.8193   43.3906 H   0  0  0  0  0  0
   78.0156   54.7523   44.4920 H   0  0  0  0  0  0
   80.1598   53.5225   44.4804 H   0  0  0  0  0  0
   81.2902   53.0294   42.3381 H   0  0  0  0  0  0
   80.2764   53.7662   40.2075 H   0  0  0  0  0  0
   78.1322   54.9960   40.2191 H   0  0  0  0  0  0
  1  2  1  0  0  0
  1  7  2  0  0  0
  1 16  1  0  0  0
  2  3  2  0  0  0
  2 13  1  0  0  0
  3  4  1  0  0  0
  3 10  1  0  0  0
  4  5  1  0  0  0
  4 15  1  0  0  0
  5  6  2  0  0  0
  5  7  1  0  0  0
  7  8  1  0  0  0
  8  9  3  0  0  0
 10 11  1  0  0  0
 10 14  1  0  0  0
 10 22  1  0  0  0
 11 12  1  0  0  0
 11 21  1  0  0  0
 12 13  1  0  0  0
 12 17  1  0  0  0
 12 18  1  0  0  0
 13 19  1  0  0  0
 13 20  1  0  0  0
 22 23  1  0  0  0
 22 26  1  0  0  0
 22 35  1  0  0  0
 23 24  1  0  0  0
 23 36  1  0  0  0
 23 37  1  0  0  0
 24 25  1  0  0  0
 24 38  1  0  0  0
 24 39  1  0  0  0
 25 26  1  0  0  0
 25 40  1  0  0  0
 25 41  1  0  0  0
 26 27  1  0  0  0
 26 42  1  0  0  0
 27 28  1  0  0  0
 28 29  1  0  0  0
 28 43  1  0  0  0
 28 44  1  0  0  0
 29 30  2  0  0  0
 29 34  1  0  0  0
 30 31  1  0  0  0
 30 45  1  0  0  0
 31 32  2  0  0  0
 31 46  1  0  0  0
 32 33  1  0  0  0
 32 47  1  0  0  0
 33 34  2  0  0  0
 33 48  1  0  0  0
 34 49  1  0  0  0
M  END
> <b_m_subgroup_collapsed>
1

> <s_m_subgroup_title>
enumerate_141-out

> <s_m_subgroupid>
enumerate_141-out

$$$$
