22958-6
                    3D
 Schrodinger Suite 2024-3.
 44 47  0  0  1  0            999 V2000
   76.7152   51.2564   42.5117 C   0  0  0  0  0  0
   75.6469   51.8672   41.7091 C   0  0  0  0  0  0
   74.7156   52.5958   42.3599 C   0  0  0  0  0  0
   74.7624   52.7581   43.7471 N   0  0  0  0  0  0
   75.7023   52.2182   44.5484 C   0  0  0  0  0  0
   75.6665   52.3767   45.7684 O   0  0  0  0  0  0
   76.7303   51.4438   43.8559 C   0  0  0  0  0  0
   77.7066   50.8711   44.7216 C   0  0  0  0  0  0
   78.4723   50.4247   45.4646 N   0  0  0  0  0  0
   73.5301   53.2752   41.6754 C   0  0  2  0  0  0
   73.5536   53.2080   40.1403 N   0  0  0  0  0  0
   74.1629   51.9154   39.6394 C   0  0  0  0  0  0
   75.5862   51.7783   40.1806 C   0  0  0  0  0  0
   72.6664   52.6907   41.9933 H   0  0  0  0  0  0
   74.0228   53.3179   44.1572 H   0  0  0  0  0  0
   78.2659   50.0552   41.5379 R   0  0  0  0  0  0
   73.5564   51.0654   39.9852 H   0  0  0  0  0  0
   74.1880   51.9241   38.5497 H   0  0  0  0  0  0
   76.5095   51.6308   39.6012 H   0  0  0  0  0  0
   75.7161   52.8584   40.1126 H   0  0  0  0  0  0
   72.6100   53.2702   39.7856 H   0  0  0  0  0  0
   73.3610   54.5742   42.1095 O   0  0  0  0  0  0
   74.3450   55.4554   41.7098 C   0  0  2  0  0  0
   75.0515   56.1324   42.8873 C   0  0  0  0  0  0
   75.6642   57.4121   42.3001 C   0  0  2  0  0  0
   75.4887   58.5701   43.1231 O   0  0  0  0  0  0
   74.2793   59.2321   42.7555 C   0  0  0  0  0  0
   74.3373   59.1255   41.2370 C   0  0  2  0  0  0
   73.0074   59.3719   40.5884 C   0  0  0  0  0  0
   74.8787   57.7207   41.0154 C   0  0  2  0  0  0
   73.7961   56.6288   40.8978 C   0  0  0  0  0  0
   75.0653   54.8916   41.1127 H   0  0  0  0  0  0
   74.3222   56.3843   43.6589 H   0  0  0  0  0  0
   75.8017   55.4899   43.3497 H   0  0  0  0  0  0
   76.7244   57.2668   42.0819 H   0  0  0  0  0  0
   73.4115   58.7132   43.1689 H   0  0  0  0  0  0
   74.2566   60.2653   43.1049 H   0  0  0  0  0  0
   75.0351   59.8679   40.8449 H   0  0  0  0  0  0
   72.2830   58.6460   40.9578 H   0  0  0  0  0  0
   72.6672   60.3792   40.8285 H   0  0  0  0  0  0
   73.1057   59.2695   39.5077 H   0  0  0  0  0  0
   75.5416   57.6835   40.1479 H   0  0  0  0  0  0
   73.5864   56.3565   39.8618 H   0  0  0  0  0  0
   72.8529   56.9597   41.3384 H   0  0  0  0  0  0
  1  2  1  0  0  0
  1  7  2  0  0  0
  1 16  1  0  0  0
  2  3  2  0  0  0
  2 13  1  0  0  0
  3  4  1  0  0  0
  3 10  1  0  0  0
  4  5  1  0  0  0
  4 15  1  0  0  0
  5  6  2  0  0  0
  5  7  1  0  0  0
  7  8  1  0  0  0
  8  9  3  0  0  0
 10 11  1  0  0  0
 10 14  1  0  0  0
 10 22  1  0  0  0
 11 12  1  0  0  0
 11 21  1  0  0  0
 12 13  1  0  0  0
 12 17  1  0  0  0
 12 18  1  0  0  0
 13 19  1  0  0  0
 13 20  1  0  0  0
 22 23  1  0  0  0
 23 24  1  0  0  0
 23 31  1  0  0  0
 23 32  1  0  0  0
 24 25  1  0  0  0
 24 33  1  0  0  0
 24 34  1  0  0  0
 25 26  1  0  0  0
 25 30  1  0  0  0
 25 35  1  0  0  0
 26 27  1  0  0  0
 27 28  1  0  0  0
 27 36  1  0  0  0
 27 37  1  0  0  0
 28 29  1  0  0  0
 28 30  1  0  0  0
 28 38  1  0  0  0
 29 39  1  0  0  0
 29 40  1  0  0  0
 29 41  1  0  0  0
 30 31  1  0  0  0
 30 42  1  0  0  0
 31 43  1  0  0  0
 31 44  1  0  0  0
M  END
> <b_m_subgroup_collapsed>
1

> <s_m_subgroup_title>
enumerate_142-out

> <s_m_subgroupid>
enumerate_142-out

$$$$
