30463-1
                    3D
 Schrodinger Suite 2024-3.
 40 42  0  0  1  0            999 V2000
   76.7152   51.2564   42.5117 C   0  0  0  0  0  0
   75.6469   51.8672   41.7091 C   0  0  0  0  0  0
   74.7156   52.5958   42.3599 C   0  0  0  0  0  0
   74.7624   52.7581   43.7471 N   0  0  0  0  0  0
   75.7023   52.2182   44.5484 C   0  0  0  0  0  0
   75.6665   52.3767   45.7684 O   0  0  0  0  0  0
   76.7303   51.4438   43.8559 C   0  0  0  0  0  0
   77.7066   50.8711   44.7216 C   0  0  0  0  0  0
   78.4723   50.4247   45.4646 N   0  0  0  0  0  0
   73.5301   53.2752   41.6754 C   0  0  2  0  0  0
   73.5536   53.2080   40.1403 N   0  0  0  0  0  0
   74.1629   51.9154   39.6394 C   0  0  0  0  0  0
   75.5862   51.7783   40.1806 C   0  0  0  0  0  0
   72.6664   52.6907   41.9933 H   0  0  0  0  0  0
   74.0228   53.3179   44.1572 H   0  0  0  0  0  0
   78.2659   50.0552   41.5379 R   0  0  0  0  0  0
   73.5564   51.0654   39.9852 H   0  0  0  0  0  0
   74.1880   51.9241   38.5497 H   0  0  0  0  0  0
   76.5095   51.6308   39.6012 H   0  0  0  0  0  0
   75.7161   52.8584   40.1126 H   0  0  0  0  0  0
   72.6100   53.2702   39.7856 H   0  0  0  0  0  0
   76.3254   56.9603   42.4954 C   0  0  0  0  0  0
   75.1671   56.0843   42.6452 N   0  0  0  0  0  0
   74.4785   55.5335   41.6451 C   0  0  0  0  0  0
   74.7588   55.7138   40.4638 O   0  0  0  0  0  0
   73.3463   54.6872   42.1472 C   0  0  1  0  0  0
   72.0486   55.2251   41.6214 C   0  0  0  0  0  0
   70.8070   54.6056   42.2676 C   0  0  0  0  0  0
   70.5245   55.8833   42.9892 O   0  0  0  0  0  0
   71.6274   56.5596   42.2415 C   0  0  0  0  0  0
   76.6841   57.2601   43.4801 H   0  0  0  0  0  0
   77.1168   56.4290   41.9667 H   0  0  0  0  0  0
   76.0402   57.8459   41.9275 H   0  0  0  0  0  0
   73.3331   54.7073   43.2369 H   0  0  0  0  0  0
   72.0568   55.2070   40.5315 H   0  0  0  0  0  0
   69.9746   54.3817   41.5970 H   0  0  0  0  0  0
   70.9809   53.8067   42.9912 H   0  0  0  0  0  0
   72.3263   57.0113   42.9485 H   0  0  0  0  0  0
   71.1980   57.2952   41.5579 H   0  0  0  0  0  0
   74.9715   55.9630   43.6286 H   0  0  0  0  0  0
  1  2  1  0  0  0
  1  7  2  0  0  0
  1 16  1  0  0  0
  2  3  2  0  0  0
  2 13  1  0  0  0
  3  4  1  0  0  0
  3 10  1  0  0  0
  4  5  1  0  0  0
  4 15  1  0  0  0
  5  6  2  0  0  0
  5  7  1  0  0  0
  7  8  1  0  0  0
  8  9  3  0  0  0
 10 11  1  0  0  0
 10 14  1  0  0  0
 10 26  1  0  0  0
 11 12  1  0  0  0
 11 21  1  0  0  0
 12 13  1  0  0  0
 12 17  1  0  0  0
 12 18  1  0  0  0
 13 19  1  0  0  0
 13 20  1  0  0  0
 22 23  1  0  0  0
 22 31  1  0  0  0
 22 32  1  0  0  0
 22 33  1  0  0  0
 23 24  1  0  0  0
 23 40  1  0  0  0
 24 25  2  0  0  0
 24 26  1  0  0  0
 26 27  1  0  0  0
 26 34  1  0  0  0
 27 28  1  0  0  0
 27 30  1  0  0  0
 27 35  1  0  0  0
 28 29  1  0  0  0
 28 36  1  0  0  0
 28 37  1  0  0  0
 29 30  1  0  0  0
 30 38  1  0  0  0
 30 39  1  0  0  0
M  END
> <b_m_subgroup_collapsed>
1

> <s_m_subgroup_title>
enumerate_142-out

> <s_m_subgroupid>
enumerate_142-out

$$$$
