22326-1
                    3D
 Schrodinger Suite 2024-3.
 46 50  0  0  1  0            999 V2000
   76.7152   51.2564   42.5117 C   0  0  0  0  0  0
   75.6469   51.8672   41.7091 C   0  0  0  0  0  0
   74.7156   52.5958   42.3599 C   0  0  0  0  0  0
   74.7624   52.7581   43.7471 N   0  0  0  0  0  0
   75.7023   52.2182   44.5484 C   0  0  0  0  0  0
   75.6665   52.3767   45.7684 O   0  0  0  0  0  0
   76.7303   51.4438   43.8559 C   0  0  0  0  0  0
   77.7066   50.8711   44.7216 C   0  0  0  0  0  0
   78.4723   50.4247   45.4646 N   0  0  0  0  0  0
   73.5301   53.2752   41.6754 C   0  0  2  0  0  0
   73.5536   53.2080   40.1403 N   0  0  0  0  0  0
   74.1629   51.9154   39.6394 C   0  0  0  0  0  0
   75.5862   51.7783   40.1806 C   0  0  0  0  0  0
   72.6664   52.6907   41.9933 H   0  0  0  0  0  0
   74.0228   53.3179   44.1572 H   0  0  0  0  0  0
   78.2659   50.0552   41.5379 R   0  0  0  0  0  0
   73.5564   51.0654   39.9852 H   0  0  0  0  0  0
   74.1880   51.9241   38.5497 H   0  0  0  0  0  0
   76.5095   51.6308   39.6012 H   0  0  0  0  0  0
   75.7161   52.8584   40.1126 H   0  0  0  0  0  0
   72.6100   53.2702   39.7856 H   0  0  0  0  0  0
   73.3463   54.6872   42.1472 C   0  0  1  0  0  0
   72.0539   54.7848   42.9883 C   0  0  0  0  0  0
   71.8666   56.2393   43.4745 C   0  0  2  0  0  0
   71.7582   57.1802   42.2538 C   0  0  0  0  0  0
   73.0510   57.0820   41.4135 C   0  0  1  0  0  0
   74.2623   57.4969   42.2786 C   0  0  0  0  0  0
   74.3652   56.5539   43.4959 C   0  0  1  0  0  0
   75.4093   56.9113   44.2422 F   0  0  0  0  0  0
   73.0773   56.6541   44.3404 C   0  0  0  0  0  0
   74.5577   55.1010   43.0125 C   0  0  0  0  0  0
   73.2387   55.6279   40.9262 C   0  0  0  0  0  0
   71.1930   54.4700   42.3967 H   0  0  0  0  0  0
   72.1043   54.1046   43.8399 H   0  0  0  0  0  0
   70.9550   56.3091   44.0692 H   0  0  0  0  0  0
   71.5969   58.2083   42.5814 H   0  0  0  0  0  0
   70.8918   56.9136   41.6469 H   0  0  0  0  0  0
   72.9761   57.7471   40.5524 H   0  0  0  0  0  0
   74.1558   58.5303   42.6103 H   0  0  0  0  0  0
   75.1803   57.4555   41.6912 H   0  0  0  0  0  0
   73.1524   56.0135   45.2198 H   0  0  0  0  0  0
   72.9479   57.6716   44.7111 H   0  0  0  0  0  0
   74.6613   54.4303   43.8663 H   0  0  0  0  0  0
   75.4814   55.0138   42.4392 H   0  0  0  0  0  0
   74.1337   55.5488   40.3073 H   0  0  0  0  0  0
   72.4020   55.3307   40.2923 H   0  0  0  0  0  0
  1  2  1  0  0  0
  1  7  2  0  0  0
  1 16  1  0  0  0
  2  3  2  0  0  0
  2 13  1  0  0  0
  3  4  1  0  0  0
  3 10  1  0  0  0
  4  5  1  0  0  0
  4 15  1  0  0  0
  5  6  2  0  0  0
  5  7  1  0  0  0
  7  8  1  0  0  0
  8  9  3  0  0  0
 10 11  1  0  0  0
 10 14  1  0  0  0
 10 22  1  0  0  0
 11 12  1  0  0  0
 11 21  1  0  0  0
 12 13  1  0  0  0
 12 17  1  0  0  0
 12 18  1  0  0  0
 13 19  1  0  0  0
 13 20  1  0  0  0
 22 23  1  0  0  0
 22 31  1  0  0  0
 22 32  1  0  0  0
 23 24  1  0  0  0
 23 33  1  0  0  0
 23 34  1  0  0  0
 24 25  1  0  0  0
 24 30  1  0  0  0
 24 35  1  0  0  0
 25 26  1  0  0  0
 25 36  1  0  0  0
 25 37  1  0  0  0
 26 27  1  0  0  0
 26 32  1  0  0  0
 26 38  1  0  0  0
 27 28  1  0  0  0
 27 39  1  0  0  0
 27 40  1  0  0  0
 28 29  1  0  0  0
 28 30  1  0  0  0
 28 31  1  0  0  0
 30 41  1  0  0  0
 30 42  1  0  0  0
 31 43  1  0  0  0
 31 44  1  0  0  0
 32 45  1  0  0  0
 32 46  1  0  0  0
M  END
> <b_m_subgroup_collapsed>
1

> <s_m_subgroup_title>
enumerate_142-out

> <s_m_subgroupid>
enumerate_142-out

$$$$
