24560-2
                    3D
 Schrodinger Suite 2024-3.
 38 40  0  0  1  0            999 V2000
   76.7152   51.2564   42.5117 C   0  0  0  0  0  0
   75.6469   51.8672   41.7091 C   0  0  0  0  0  0
   74.7156   52.5958   42.3599 C   0  0  0  0  0  0
   74.7624   52.7581   43.7471 N   0  0  0  0  0  0
   75.7023   52.2182   44.5484 C   0  0  0  0  0  0
   75.6665   52.3767   45.7684 O   0  0  0  0  0  0
   76.7303   51.4438   43.8559 C   0  0  0  0  0  0
   77.7066   50.8711   44.7216 C   0  0  0  0  0  0
   78.4723   50.4247   45.4646 N   0  0  0  0  0  0
   73.5301   53.2752   41.6754 C   0  0  2  0  0  0
   73.5536   53.2080   40.1403 N   0  0  0  0  0  0
   74.1629   51.9154   39.6394 C   0  0  0  0  0  0
   75.5862   51.7783   40.1806 C   0  0  0  0  0  0
   72.6664   52.6907   41.9933 H   0  0  0  0  0  0
   74.0228   53.3179   44.1572 H   0  0  0  0  0  0
   78.2659   50.0552   41.5379 R   0  0  0  0  0  0
   73.5564   51.0654   39.9852 H   0  0  0  0  0  0
   74.1880   51.9241   38.5497 H   0  0  0  0  0  0
   76.5095   51.6308   39.6012 H   0  0  0  0  0  0
   75.7161   52.8584   40.1126 H   0  0  0  0  0  0
   72.6100   53.2702   39.7856 H   0  0  0  0  0  0
   73.3610   54.5742   42.1095 O   0  0  0  0  0  0
   72.1960   55.1827   41.6888 C   0  0  1  0  0  0
   71.3512   55.5558   42.9221 C   0  0  0  0  0  0
   72.0215   56.5644   43.6842 O   0  0  0  0  0  0
   72.2433   57.7857   42.9726 C   0  0  0  0  0  0
   73.1316   57.5212   41.7417 C   0  0  0  0  0  0
   72.5359   56.4228   40.8449 C   0  0  1  0  0  0
   73.4110   56.0957   39.8292 O   0  0  0  0  0  0
   71.6685   54.4440   41.0836 H   0  0  0  0  0  0
   70.3592   55.9030   42.6249 H   0  0  0  0  0  0
   71.1957   54.6782   43.5512 H   0  0  0  0  0  0
   71.2902   58.2300   42.6775 H   0  0  0  0  0  0
   72.7259   58.5032   43.6378 H   0  0  0  0  0  0
   74.1253   57.2211   42.0784 H   0  0  0  0  0  0
   73.2682   58.4428   41.1741 H   0  0  0  0  0  0
   71.6312   56.7957   40.3598 H   0  0  0  0  0  0
   73.0642   56.2553   38.9049 H   0  0  0  0  0  0
  1  2  1  0  0  0
  1  7  2  0  0  0
  1 16  1  0  0  0
  2  3  2  0  0  0
  2 13  1  0  0  0
  3  4  1  0  0  0
  3 10  1  0  0  0
  4  5  1  0  0  0
  4 15  1  0  0  0
  5  6  2  0  0  0
  5  7  1  0  0  0
  7  8  1  0  0  0
  8  9  3  0  0  0
 10 11  1  0  0  0
 10 14  1  0  0  0
 10 22  1  0  0  0
 11 12  1  0  0  0
 11 21  1  0  0  0
 12 13  1  0  0  0
 12 17  1  0  0  0
 12 18  1  0  0  0
 13 19  1  0  0  0
 13 20  1  0  0  0
 22 23  1  0  0  0
 23 24  1  0  0  0
 23 28  1  0  0  0
 23 30  1  0  0  0
 24 25  1  0  0  0
 24 31  1  0  0  0
 24 32  1  0  0  0
 25 26  1  0  0  0
 26 27  1  0  0  0
 26 33  1  0  0  0
 26 34  1  0  0  0
 27 28  1  0  0  0
 27 35  1  0  0  0
 27 36  1  0  0  0
 28 29  1  0  0  0
 28 37  1  0  0  0
 29 38  1  0  0  0
M  END
> <b_m_subgroup_collapsed>
1

> <s_m_subgroup_title>
enumerate_141-out

> <s_m_subgroupid>
enumerate_141-out

$$$$
