43922-3
                    3D
 Schrodinger Suite 2024-3.
 41 44  0  0  1  0            999 V2000
   76.7152   51.2564   42.5117 C   0  0  0  0  0  0
   75.6469   51.8672   41.7091 C   0  0  0  0  0  0
   74.7156   52.5958   42.3599 C   0  0  0  0  0  0
   74.7624   52.7581   43.7471 N   0  0  0  0  0  0
   75.7023   52.2182   44.5484 C   0  0  0  0  0  0
   75.6665   52.3767   45.7684 O   0  0  0  0  0  0
   76.7303   51.4438   43.8559 C   0  0  0  0  0  0
   77.7066   50.8711   44.7216 C   0  0  0  0  0  0
   78.4723   50.4247   45.4646 N   0  0  0  0  0  0
   73.5301   53.2752   41.6754 C   0  0  2  0  0  0
   73.5536   53.2080   40.1403 N   0  0  0  0  0  0
   74.1629   51.9154   39.6394 C   0  0  0  0  0  0
   75.5862   51.7783   40.1806 C   0  0  0  0  0  0
   72.6664   52.6907   41.9933 H   0  0  0  0  0  0
   74.0228   53.3179   44.1572 H   0  0  0  0  0  0
   78.2659   50.0552   41.5379 R   0  0  0  0  0  0
   73.5564   51.0654   39.9852 H   0  0  0  0  0  0
   74.1880   51.9241   38.5497 H   0  0  0  0  0  0
   76.5095   51.6308   39.6012 H   0  0  0  0  0  0
   75.7161   52.8584   40.1126 H   0  0  0  0  0  0
   72.6100   53.2702   39.7856 H   0  0  0  0  0  0
   73.3610   54.5742   42.1095 O   0  0  0  0  0  0
   74.3450   55.4554   41.7098 C   0  0  2  0  0  0
   75.0743   56.0990   42.8924 C   0  0  0  0  0  0
   75.6565   57.3899   42.3069 C   0  0  0  0  0  0
   74.6041   57.8826   41.3093 C   0  0  2  0  0  0
   73.6137   58.6966   41.9404 O   0  0  0  0  0  0
   72.3954   58.5255   41.2246 C   0  0  0  0  0  0
   72.3572   57.0057   41.1542 C   0  0  0  0  0  0
   73.8119   56.6373   40.8758 C   0  0  2  0  0  0
   75.0583   54.8813   41.1145 H   0  0  0  0  0  0
   74.3593   56.3394   43.6823 H   0  0  0  0  0  0
   75.8348   55.4480   43.3272 H   0  0  0  0  0  0
   75.8846   58.1327   43.0722 H   0  0  0  0  0  0
   76.5858   57.1731   41.7774 H   0  0  0  0  0  0
   75.0478   58.4095   40.4609 H   0  0  0  0  0  0
   71.5420   58.9444   41.7600 H   0  0  0  0  0  0
   72.4449   58.9883   40.2358 H   0  0  0  0  0  0
   71.6699   56.6431   40.3885 H   0  0  0  0  0  0
   72.0196   56.6110   42.1148 H   0  0  0  0  0  0
   73.9597   56.4547   39.8089 H   0  0  0  0  0  0
  1  2  1  0  0  0
  1  7  2  0  0  0
  1 16  1  0  0  0
  2  3  2  0  0  0
  2 13  1  0  0  0
  3  4  1  0  0  0
  3 10  1  0  0  0
  4  5  1  0  0  0
  4 15  1  0  0  0
  5  6  2  0  0  0
  5  7  1  0  0  0
  7  8  1  0  0  0
  8  9  3  0  0  0
 10 11  1  0  0  0
 10 14  1  0  0  0
 10 22  1  0  0  0
 11 12  1  0  0  0
 11 21  1  0  0  0
 12 13  1  0  0  0
 12 17  1  0  0  0
 12 18  1  0  0  0
 13 19  1  0  0  0
 13 20  1  0  0  0
 22 23  1  0  0  0
 23 24  1  0  0  0
 23 30  1  0  0  0
 23 31  1  0  0  0
 24 25  1  0  0  0
 24 32  1  0  0  0
 24 33  1  0  0  0
 25 26  1  0  0  0
 25 34  1  0  0  0
 25 35  1  0  0  0
 26 27  1  0  0  0
 26 30  1  0  0  0
 26 36  1  0  0  0
 27 28  1  0  0  0
 28 29  1  0  0  0
 28 37  1  0  0  0
 28 38  1  0  0  0
 29 30  1  0  0  0
 29 39  1  0  0  0
 29 40  1  0  0  0
 30 41  1  0  0  0
M  END
> <b_m_subgroup_collapsed>
1

> <s_m_subgroup_title>
enumerate_141-out

> <s_m_subgroupid>
enumerate_141-out

$$$$
