15567-1
                    3D
 Schrodinger Suite 2024-3.
 44 46  0  0  1  0            999 V2000
   76.7152   51.2564   42.5117 C   0  0  0  0  0  0
   75.6469   51.8672   41.7091 C   0  0  0  0  0  0
   74.7156   52.5958   42.3599 C   0  0  0  0  0  0
   74.7624   52.7581   43.7471 N   0  0  0  0  0  0
   75.7023   52.2182   44.5484 C   0  0  0  0  0  0
   75.6665   52.3767   45.7684 O   0  0  0  0  0  0
   76.7303   51.4438   43.8559 C   0  0  0  0  0  0
   77.7066   50.8711   44.7216 C   0  0  0  0  0  0
   78.4723   50.4247   45.4646 N   0  0  0  0  0  0
   73.5301   53.2752   41.6754 C   0  0  2  0  0  0
   73.5536   53.2080   40.1403 N   0  0  0  0  0  0
   74.1629   51.9154   39.6394 C   0  0  0  0  0  0
   75.5862   51.7783   40.1806 C   0  0  0  0  0  0
   72.6664   52.6907   41.9933 H   0  0  0  0  0  0
   74.0228   53.3179   44.1572 H   0  0  0  0  0  0
   78.2659   50.0552   41.5379 R   0  0  0  0  0  0
   73.5564   51.0654   39.9852 H   0  0  0  0  0  0
   74.1880   51.9241   38.5497 H   0  0  0  0  0  0
   76.5095   51.6308   39.6012 H   0  0  0  0  0  0
   75.7161   52.8584   40.1126 H   0  0  0  0  0  0
   72.6100   53.2702   39.7856 H   0  0  0  0  0  0
   73.3463   54.6872   42.1472 C   0  0  0  0  0  0
   74.2536   55.4805   42.3798 O   0  0  0  0  0  0
   72.0577   54.9981   42.2912 N   0  0  0  0  0  0
   71.5417   56.2900   42.7340 C   0  0  2  0  0  0
   70.7412   56.1051   43.9890 C   0  0  0  0  0  0
   70.6665   56.8723   41.6640 C   0  0  0  0  0  0
   71.4670   57.0572   40.4090 C   0  0  0  0  0  0
   72.1467   58.2506   40.1712 C   0  0  0  0  0  0
   72.8847   58.3999   38.9972 C   0  0  0  0  0  0
   72.9228   57.3450   38.0879 C   0  0  0  0  0  0
   72.2185   56.1810   38.3923 C   0  0  0  0  0  0
   71.4958   56.0223   39.5318 N   0  0  0  0  0  0
   72.3740   56.9658   42.9303 H   0  0  0  0  0  0
   70.3559   57.0696   44.3196 H   0  0  0  0  0  0
   69.9088   55.4293   43.7928 H   0  0  0  0  0  0
   71.3771   55.6820   44.7666 H   0  0  0  0  0  0
   69.8341   56.1964   41.4677 H   0  0  0  0  0  0
   70.2812   57.8368   41.9946 H   0  0  0  0  0  0
   72.1011   59.0545   40.8932 H   0  0  0  0  0  0
   73.4184   59.3189   38.7961 H   0  0  0  0  0  0
   73.4849   57.4257   37.1675 H   0  0  0  0  0  0
   72.2306   55.3449   37.7033 H   0  0  0  0  0  0
   71.2811   54.3778   42.1115 H   0  0  0  0  0  0
  1  2  1  0  0  0
  1  7  2  0  0  0
  1 16  1  0  0  0
  2  3  2  0  0  0
  2 13  1  0  0  0
  3  4  1  0  0  0
  3 10  1  0  0  0
  4  5  1  0  0  0
  4 15  1  0  0  0
  5  6  2  0  0  0
  5  7  1  0  0  0
  7  8  1  0  0  0
  8  9  3  0  0  0
 10 11  1  0  0  0
 10 14  1  0  0  0
 10 22  1  0  0  0
 11 12  1  0  0  0
 11 21  1  0  0  0
 12 13  1  0  0  0
 12 17  1  0  0  0
 12 18  1  0  0  0
 13 19  1  0  0  0
 13 20  1  0  0  0
 22 23  2  0  0  0
 22 24  1  0  0  0
 24 25  1  0  0  0
 24 44  1  0  0  0
 25 26  1  0  0  0
 25 27  1  0  0  0
 25 34  1  0  0  0
 26 35  1  0  0  0
 26 36  1  0  0  0
 26 37  1  0  0  0
 27 28  1  0  0  0
 27 38  1  0  0  0
 27 39  1  0  0  0
 28 29  2  0  0  0
 28 33  1  0  0  0
 29 30  1  0  0  0
 29 40  1  0  0  0
 30 31  2  0  0  0
 30 41  1  0  0  0
 31 32  1  0  0  0
 31 42  1  0  0  0
 32 33  2  0  0  0
 32 43  1  0  0  0
M  END
> <b_m_subgroup_collapsed>
1

> <s_m_subgroup_title>
enumerate_142-out

> <s_m_subgroupid>
enumerate_142-out

$$$$
