14376-1
                    3D
 Schrodinger Suite 2024-3.
 44 48  0  0  1  0            999 V2000
   76.7152   51.2564   42.5117 C   0  0  0  0  0  0
   75.6469   51.8672   41.7091 C   0  0  0  0  0  0
   74.7156   52.5958   42.3599 C   0  0  0  0  0  0
   74.7624   52.7581   43.7471 N   0  0  0  0  0  0
   75.7023   52.2182   44.5484 C   0  0  0  0  0  0
   75.6665   52.3767   45.7684 O   0  0  0  0  0  0
   76.7303   51.4438   43.8559 C   0  0  0  0  0  0
   77.7066   50.8711   44.7216 C   0  0  0  0  0  0
   78.4723   50.4247   45.4646 N   0  0  0  0  0  0
   73.5301   53.2752   41.6754 C   0  0  2  0  0  0
   73.5536   53.2080   40.1403 N   0  0  0  0  0  0
   74.1629   51.9154   39.6394 C   0  0  0  0  0  0
   75.5862   51.7783   40.1806 C   0  0  0  0  0  0
   72.6664   52.6907   41.9933 H   0  0  0  0  0  0
   74.0228   53.3179   44.1572 H   0  0  0  0  0  0
   78.2659   50.0552   41.5379 R   0  0  0  0  0  0
   73.5564   51.0654   39.9852 H   0  0  0  0  0  0
   74.1880   51.9241   38.5497 H   0  0  0  0  0  0
   76.5095   51.6308   39.6012 H   0  0  0  0  0  0
   75.7161   52.8584   40.1126 H   0  0  0  0  0  0
   72.6100   53.2702   39.7856 H   0  0  0  0  0  0
   73.3463   54.6872   42.1472 C   0  0  1  0  0  0
   72.0046   55.2407   41.6279 C   0  0  0  0  0  0
   71.8186   56.6670   42.1740 C   0  0  2  0  0  0
   72.9850   57.5679   41.7017 C   0  0  0  0  0  0
   74.3303   56.9858   42.1985 C   0  0  1  0  0  0
   74.3269   56.8975   43.7345 C   0  0  0  0  0  0
   73.1615   55.9881   44.1716 C   0  0  1  0  0  0
   71.8145   56.5785   43.7101 C   0  0  0  0  0  0
   73.3318   54.6910   43.5820 O   0  0  0  0  0  0
   74.5171   55.5594   41.6526 C   0  0  0  0  0  0
   71.9895   55.2415   40.5375 H   0  0  0  0  0  0
   71.1854   54.5971   41.9507 H   0  0  0  0  0  0
   70.8699   57.0758   41.8248 H   0  0  0  0  0  0
   72.8525   58.5835   42.0773 H   0  0  0  0  0  0
   72.9860   57.6430   40.6133 H   0  0  0  0  0  0
   75.1533   57.6194   41.8663 H   0  0  0  0  0  0
   75.2726   56.4924   44.0968 H   0  0  0  0  0  0
   74.2228   57.8891   44.1763 H   0  0  0  0  0  0
   73.1648   55.8794   45.2566 H   0  0  0  0  0  0
   71.6591   57.5635   44.1515 H   0  0  0  0  0  0
   70.9933   55.9490   44.0552 H   0  0  0  0  0  0
   75.4646   55.1402   41.9931 H   0  0  0  0  0  0
   74.5529   55.5665   40.5627 H   0  0  0  0  0  0
  1  2  1  0  0  0
  1  7  2  0  0  0
  1 16  1  0  0  0
  2  3  2  0  0  0
  2 13  1  0  0  0
  3  4  1  0  0  0
  3 10  1  0  0  0
  4  5  1  0  0  0
  4 15  1  0  0  0
  5  6  2  0  0  0
  5  7  1  0  0  0
  7  8  1  0  0  0
  8  9  3  0  0  0
 10 11  1  0  0  0
 10 14  1  0  0  0
 10 22  1  0  0  0
 11 12  1  0  0  0
 11 21  1  0  0  0
 12 13  1  0  0  0
 12 17  1  0  0  0
 12 18  1  0  0  0
 13 19  1  0  0  0
 13 20  1  0  0  0
 22 23  1  0  0  0
 22 30  1  0  0  0
 22 31  1  0  0  0
 23 24  1  0  0  0
 23 32  1  0  0  0
 23 33  1  0  0  0
 24 25  1  0  0  0
 24 29  1  0  0  0
 24 34  1  0  0  0
 25 26  1  0  0  0
 25 35  1  0  0  0
 25 36  1  0  0  0
 26 27  1  0  0  0
 26 31  1  0  0  0
 26 37  1  0  0  0
 27 28  1  0  0  0
 27 38  1  0  0  0
 27 39  1  0  0  0
 28 29  1  0  0  0
 28 30  1  0  0  0
 28 40  1  0  0  0
 29 41  1  0  0  0
 29 42  1  0  0  0
 31 43  1  0  0  0
 31 44  1  0  0  0
M  END
> <b_m_subgroup_collapsed>
1

> <s_m_subgroup_title>
enumerate_141-out

> <s_m_subgroupid>
enumerate_141-out

$$$$
