22931-2
                    3D
 Schrodinger Suite 2024-3.
 40 42  0  0  1  0            999 V2000
   76.7152   51.2564   42.5117 C   0  0  0  0  0  0
   75.6469   51.8672   41.7091 C   0  0  0  0  0  0
   74.7156   52.5958   42.3599 C   0  0  0  0  0  0
   74.7624   52.7581   43.7471 N   0  0  0  0  0  0
   75.7023   52.2182   44.5484 C   0  0  0  0  0  0
   75.6665   52.3767   45.7684 O   0  0  0  0  0  0
   76.7303   51.4438   43.8559 C   0  0  0  0  0  0
   77.7066   50.8711   44.7216 C   0  0  0  0  0  0
   78.4723   50.4247   45.4646 N   0  0  0  0  0  0
   73.5301   53.2752   41.6754 C   0  0  2  0  0  0
   73.5536   53.2080   40.1403 N   0  0  0  0  0  0
   74.1629   51.9154   39.6394 C   0  0  0  0  0  0
   75.5862   51.7783   40.1806 C   0  0  0  0  0  0
   72.6664   52.6907   41.9933 H   0  0  0  0  0  0
   74.0228   53.3179   44.1572 H   0  0  0  0  0  0
   78.2659   50.0552   41.5379 R   0  0  0  0  0  0
   73.5564   51.0654   39.9852 H   0  0  0  0  0  0
   74.1880   51.9241   38.5497 H   0  0  0  0  0  0
   76.5095   51.6308   39.6012 H   0  0  0  0  0  0
   75.7161   52.8584   40.1126 H   0  0  0  0  0  0
   72.6100   53.2702   39.7856 H   0  0  0  0  0  0
   73.3610   54.5742   42.1095 O   0  0  0  0  0  0
   74.3450   55.4554   41.7098 C   0  0  1  0  0  0
   73.7140   56.5313   40.8063 C   0  0  0  0  0  0
   74.7555   57.4494   40.1377 C   0  0  0  0  0  0
   75.2916   58.5982   41.0174 C   0  0  0  0  0  0
   75.5235   58.3103   42.3966 O   0  0  0  0  0  0
   76.1365   57.0646   42.7117 C   0  0  0  0  0  0
   75.0687   55.9857   42.9633 C   0  0  0  0  0  0
   75.0421   54.8578   41.1188 H   0  0  0  0  0  0
   73.1470   56.0229   40.0240 H   0  0  0  0  0  0
   72.9840   57.1214   41.3639 H   0  0  0  0  0  0
   75.5916   56.8476   39.7780 H   0  0  0  0  0  0
   74.3221   57.8921   39.2395 H   0  0  0  0  0  0
   76.2096   58.9933   40.5788 H   0  0  0  0  0  0
   74.5795   59.4244   40.9923 H   0  0  0  0  0  0
   76.8643   56.7535   41.9588 H   0  0  0  0  0  0
   76.7033   57.2147   43.6317 H   0  0  0  0  0  0
   74.3345   56.3774   43.6691 H   0  0  0  0  0  0
   75.5397   55.1422   43.4704 H   0  0  0  0  0  0
  1  2  1  0  0  0
  1  7  2  0  0  0
  1 16  1  0  0  0
  2  3  2  0  0  0
  2 13  1  0  0  0
  3  4  1  0  0  0
  3 10  1  0  0  0
  4  5  1  0  0  0
  4 15  1  0  0  0
  5  6  2  0  0  0
  5  7  1  0  0  0
  7  8  1  0  0  0
  8  9  3  0  0  0
 10 11  1  0  0  0
 10 14  1  0  0  0
 10 22  1  0  0  0
 11 12  1  0  0  0
 11 21  1  0  0  0
 12 13  1  0  0  0
 12 17  1  0  0  0
 12 18  1  0  0  0
 13 19  1  0  0  0
 13 20  1  0  0  0
 22 23  1  0  0  0
 23 24  1  0  0  0
 23 29  1  0  0  0
 23 30  1  0  0  0
 24 25  1  0  0  0
 24 31  1  0  0  0
 24 32  1  0  0  0
 25 26  1  0  0  0
 25 33  1  0  0  0
 25 34  1  0  0  0
 26 27  1  0  0  0
 26 35  1  0  0  0
 26 36  1  0  0  0
 27 28  1  0  0  0
 28 29  1  0  0  0
 28 37  1  0  0  0
 28 38  1  0  0  0
 29 39  1  0  0  0
 29 40  1  0  0  0
M  END
> <b_m_subgroup_collapsed>
1

> <s_m_subgroup_title>
enumerate_142-out

> <s_m_subgroupid>
enumerate_142-out

$$$$
