11937-1
                    3D
 Schrodinger Suite 2024-3.
 43 47  0  0  1  0            999 V2000
   76.7152   51.2564   42.5117 C   0  0  0  0  0  0
   75.6469   51.8672   41.7091 C   0  0  0  0  0  0
   74.7156   52.5958   42.3599 C   0  0  0  0  0  0
   74.7624   52.7581   43.7471 N   0  0  0  0  0  0
   75.7023   52.2182   44.5484 C   0  0  0  0  0  0
   75.6665   52.3767   45.7684 O   0  0  0  0  0  0
   76.7303   51.4438   43.8559 C   0  0  0  0  0  0
   77.7066   50.8711   44.7216 C   0  0  0  0  0  0
   78.4723   50.4247   45.4646 N   0  0  0  0  0  0
   73.5301   53.2752   41.6754 C   0  0  2  0  0  0
   73.5536   53.2080   40.1403 C   0  0  0  0  0  0
   74.1629   51.9154   39.6394 C   0  0  0  0  0  0
   75.5862   51.7783   40.1806 N   0  0  0  0  0  0
   72.6664   52.6907   41.9933 H   0  0  0  0  0  0
   72.5491   53.3463   39.7375 H   0  0  0  0  0  0
   74.1721   53.9906   39.7152 H   0  0  0  0  0  0
   74.0228   53.3179   44.1572 H   0  0  0  0  0  0
   78.2659   50.0552   41.5379 R   0  0  0  0  0  0
   73.5564   51.0654   39.9852 H   0  0  0  0  0  0
   74.1880   51.9241   38.5497 H   0  0  0  0  0  0
   76.4340   51.6429   39.6486 H   0  0  0  0  0  0
   73.3462   54.6828   42.1601 C   0  0  1  0  0  0
   72.0436   54.8387   43.0280 C   0  0  0  0  0  0
   71.8820   56.3243   43.5189 C   0  0  1  0  0  0
   73.1566   56.7839   44.2440 C   0  0  0  0  0  0
   74.1897   56.6934   43.0999 C   0  0  1  0  0  0
   74.5653   55.2045   42.9367 C   0  0  0  0  0  0
   73.3699   57.0308   41.8088 C   0  0  2  0  0  0
   71.9359   57.2863   42.3217 C   0  0  0  0  0  0
   73.3447   55.7069   41.0144 C   0  0  0  0  0  0
   71.1696   54.5401   42.4469 H   0  0  0  0  0  0
   72.0827   54.1643   43.8848 H   0  0  0  0  0  0
   70.9832   56.4575   44.1244 H   0  0  0  0  0  0
   73.4026   56.1599   45.1054 H   0  0  0  0  0  0
   73.0616   57.8078   44.6130 H   0  0  0  0  0  0
   75.0587   57.3343   43.2620 H   0  0  0  0  0  0
   74.7176   54.6857   43.8850 H   0  0  0  0  0  0
   75.4872   55.0885   42.3620 H   0  0  0  0  0  0
   73.7673   57.8659   41.2284 H   0  0  0  0  0  0
   71.8056   58.3248   42.6349 H   0  0  0  0  0  0
   71.1630   57.0818   41.5784 H   0  0  0  0  0  0
   74.2311   55.6055   40.3839 H   0  0  0  0  0  0
   72.4780   55.6075   40.3581 H   0  0  0  0  0  0
  1  2  1  0  0  0
  1  7  2  0  0  0
  1 18  1  0  0  0
  2  3  2  0  0  0
  2 13  1  0  0  0
  3  4  1  0  0  0
  3 10  1  0  0  0
  4  5  1  0  0  0
  4 17  1  0  0  0
  5  6  2  0  0  0
  5  7  1  0  0  0
  7  8  1  0  0  0
  8  9  3  0  0  0
 10 11  1  0  0  0
 10 14  1  0  0  0
 10 22  1  0  0  0
 11 12  1  0  0  0
 11 15  1  0  0  0
 11 16  1  0  0  0
 12 13  1  0  0  0
 12 19  1  0  0  0
 12 20  1  0  0  0
 13 21  1  0  0  0
 22 23  1  0  0  0
 22 27  1  0  0  0
 22 30  1  0  0  0
 23 24  1  0  0  0
 23 31  1  0  0  0
 23 32  1  0  0  0
 24 25  1  0  0  0
 24 29  1  0  0  0
 24 33  1  0  0  0
 25 26  1  0  0  0
 25 34  1  0  0  0
 25 35  1  0  0  0
 26 27  1  0  0  0
 26 28  1  0  0  0
 26 36  1  0  0  0
 27 37  1  0  0  0
 27 38  1  0  0  0
 28 29  1  0  0  0
 28 30  1  0  0  0
 28 39  1  0  0  0
 29 40  1  0  0  0
 29 41  1  0  0  0
 30 42  1  0  0  0
 30 43  1  0  0  0
M  END
> <b_m_subgroup_collapsed>
1

> <s_m_subgroup_title>
enumerate_139-out

> <s_m_subgroupid>
enumerate_139-out

$$$$
