15343-1
                    3D
 Schrodinger Suite 2024-3.
 41 43  0  0  1  0            999 V2000
   76.7152   51.2564   42.5117 C   0  0  0  0  0  0
   75.6469   51.8672   41.7091 C   0  0  0  0  0  0
   74.7156   52.5958   42.3599 C   0  0  0  0  0  0
   74.7624   52.7581   43.7471 N   0  0  0  0  0  0
   75.7023   52.2182   44.5484 C   0  0  0  0  0  0
   75.6665   52.3767   45.7684 O   0  0  0  0  0  0
   76.7303   51.4438   43.8559 C   0  0  0  0  0  0
   77.7066   50.8711   44.7216 C   0  0  0  0  0  0
   78.4723   50.4247   45.4646 N   0  0  0  0  0  0
   73.5301   53.2752   41.6754 C   0  0  2  0  0  0
   73.5536   53.2080   40.1403 C   0  0  0  0  0  0
   74.1629   51.9154   39.6394 C   0  0  0  0  0  0
   75.5862   51.7783   40.1806 N   0  0  0  0  0  0
   72.6664   52.6907   41.9933 H   0  0  0  0  0  0
   72.5491   53.3463   39.7375 H   0  0  0  0  0  0
   74.1721   53.9906   39.7152 H   0  0  0  0  0  0
   74.0228   53.3179   44.1572 H   0  0  0  0  0  0
   78.2659   50.0552   41.5379 R   0  0  0  0  0  0
   73.5564   51.0654   39.9852 H   0  0  0  0  0  0
   74.1880   51.9241   38.5497 H   0  0  0  0  0  0
   76.4340   51.6429   39.6486 H   0  0  0  0  0  0
   73.3511   54.6452   42.1472 N   0  0  0  0  0  0
   72.0872   55.1734   41.6419 C   0  0  0  0  0  0
   71.9040   56.5810   42.1270 C   0  0  0  0  0  0
   72.9281   57.2991   41.6646 F   0  0  0  0  0  0
   70.5973   57.1766   41.5870 C   0  0  0  0  0  0
   70.3162   58.5606   42.1977 C   0  0  0  0  0  0
   70.3227   58.4642   43.6246 O   0  0  0  0  0  0
   71.5730   58.0424   44.1763 C   0  0  0  0  0  0
   71.9141   56.6336   43.6603 C   0  0  0  0  0  0
   74.1131   55.2186   41.8146 H   0  0  0  0  0  0
   72.0990   55.1633   40.5521 H   0  0  0  0  0  0
   71.2651   54.5550   42.0022 H   0  0  0  0  0  0
   70.6359   57.2461   40.4997 H   0  0  0  0  0  0
   69.7694   56.5070   41.8220 H   0  0  0  0  0  0
   71.0515   59.2956   41.8622 H   0  0  0  0  0  0
   69.3424   58.9268   41.8692 H   0  0  0  0  0  0
   72.3608   58.7557   43.9237 H   0  0  0  0  0  0
   71.4992   58.0374   45.2648 H   0  0  0  0  0  0
   71.1859   55.9229   44.0522 H   0  0  0  0  0  0
   72.8856   56.3184   44.0417 H   0  0  0  0  0  0
  1  2  1  0  0  0
  1  7  2  0  0  0
  1 18  1  0  0  0
  2  3  2  0  0  0
  2 13  1  0  0  0
  3  4  1  0  0  0
  3 10  1  0  0  0
  4  5  1  0  0  0
  4 17  1  0  0  0
  5  6  2  0  0  0
  5  7  1  0  0  0
  7  8  1  0  0  0
  8  9  3  0  0  0
 10 11  1  0  0  0
 10 14  1  0  0  0
 10 22  1  0  0  0
 11 12  1  0  0  0
 11 15  1  0  0  0
 11 16  1  0  0  0
 12 13  1  0  0  0
 12 19  1  0  0  0
 12 20  1  0  0  0
 13 21  1  0  0  0
 22 23  1  0  0  0
 22 31  1  0  0  0
 23 24  1  0  0  0
 23 32  1  0  0  0
 23 33  1  0  0  0
 24 25  1  0  0  0
 24 26  1  0  0  0
 24 30  1  0  0  0
 26 27  1  0  0  0
 26 34  1  0  0  0
 26 35  1  0  0  0
 27 28  1  0  0  0
 27 36  1  0  0  0
 27 37  1  0  0  0
 28 29  1  0  0  0
 29 30  1  0  0  0
 29 38  1  0  0  0
 29 39  1  0  0  0
 30 40  1  0  0  0
 30 41  1  0  0  0
M  END
> <b_m_subgroup_collapsed>
1

> <s_m_subgroup_title>
enumerate_139-out

> <s_m_subgroupid>
enumerate_139-out

$$$$
