29570-1
                    3D
 Schrodinger Suite 2024-3.
 42 44  0  0  1  0            999 V2000
   76.7152   51.2564   42.5117 C   0  0  0  0  0  0
   75.6469   51.8672   41.7091 C   0  0  0  0  0  0
   74.7156   52.5958   42.3599 C   0  0  0  0  0  0
   74.7624   52.7581   43.7471 N   0  0  0  0  0  0
   75.7023   52.2182   44.5484 C   0  0  0  0  0  0
   75.6665   52.3767   45.7684 O   0  0  0  0  0  0
   76.7303   51.4438   43.8559 C   0  0  0  0  0  0
   77.7066   50.8711   44.7216 C   0  0  0  0  0  0
   78.4723   50.4247   45.4646 N   0  0  0  0  0  0
   73.5301   53.2752   41.6754 C   0  0  2  0  0  0
   73.5536   53.2080   40.1403 C   0  0  0  0  0  0
   74.1629   51.9154   39.6394 C   0  0  0  0  0  0
   75.5862   51.7783   40.1806 N   0  0  0  0  0  0
   72.6664   52.6907   41.9933 H   0  0  0  0  0  0
   72.5491   53.3463   39.7375 H   0  0  0  0  0  0
   74.1721   53.9906   39.7152 H   0  0  0  0  0  0
   74.0228   53.3179   44.1572 H   0  0  0  0  0  0
   78.2659   50.0552   41.5379 R   0  0  0  0  0  0
   73.5564   51.0654   39.9852 H   0  0  0  0  0  0
   74.1880   51.9241   38.5497 H   0  0  0  0  0  0
   76.4340   51.6429   39.6486 H   0  0  0  0  0  0
   74.8588   58.9221   40.3125 C   0  0  0  0  0  0
   74.5585   58.1213   41.5448 C   0  0  0  0  0  0
   73.1055   58.2609   41.8901 C   0  0  0  0  0  0
   72.8052   57.4601   43.1224 C   0  0  0  0  0  0
   71.7972   56.4503   42.8129 N   0  0  0  0  0  0
   70.4358   56.5766   42.9015 C   0  0  0  0  0  0
   69.8535   55.4589   42.5411 N   0  0  0  0  0  0
   70.8616   54.5570   42.2007 N   0  0  0  0  0  0
   72.0074   55.1706   42.3708 C   0  0  0  0  0  0
   73.3511   54.6452   42.1472 N   0  0  0  0  0  0
   75.9146   58.8206   40.0616 H   0  0  0  0  0  0
   74.2517   58.5561   39.4845 H   0  0  0  0  0  0
   74.6282   59.9715   40.4960 H   0  0  0  0  0  0
   75.1655   58.4873   42.3729 H   0  0  0  0  0  0
   74.7891   57.0719   41.3613 H   0  0  0  0  0  0
   72.4984   57.8949   41.0621 H   0  0  0  0  0  0
   72.8749   59.3103   42.0736 H   0  0  0  0  0  0
   72.4291   58.1216   43.9029 H   0  0  0  0  0  0
   73.7155   56.9707   43.4685 H   0  0  0  0  0  0
   69.9676   57.4984   43.2306 H   0  0  0  0  0  0
   74.1767   55.2440   42.3231 H   0  0  0  0  0  0
  1  2  1  0  0  0
  1  7  2  0  0  0
  1 18  1  0  0  0
  2  3  2  0  0  0
  2 13  1  0  0  0
  3  4  1  0  0  0
  3 10  1  0  0  0
  4  5  1  0  0  0
  4 17  1  0  0  0
  5  6  2  0  0  0
  5  7  1  0  0  0
  7  8  1  0  0  0
  8  9  3  0  0  0
 10 11  1  0  0  0
 10 14  1  0  0  0
 10 31  1  0  0  0
 11 12  1  0  0  0
 11 15  1  0  0  0
 11 16  1  0  0  0
 12 13  1  0  0  0
 12 19  1  0  0  0
 12 20  1  0  0  0
 13 21  1  0  0  0
 22 23  1  0  0  0
 22 32  1  0  0  0
 22 33  1  0  0  0
 22 34  1  0  0  0
 23 24  1  0  0  0
 23 35  1  0  0  0
 23 36  1  0  0  0
 24 25  1  0  0  0
 24 37  1  0  0  0
 24 38  1  0  0  0
 25 26  1  0  0  0
 25 39  1  0  0  0
 25 40  1  0  0  0
 26 27  1  0  0  0
 26 30  1  0  0  0
 27 28  2  0  0  0
 27 41  1  0  0  0
 28 29  1  0  0  0
 29 30  2  0  0  0
 30 31  1  0  0  0
 31 42  1  0  0  0
M  END
> <b_m_subgroup_collapsed>
1

> <s_m_subgroup_title>
enumerate_140-out

> <s_m_subgroupid>
enumerate_140-out

$$$$
