21077-2
                    3D
 Schrodinger Suite 2024-3.
 54 55  0  0  1  0            999 V2000
   76.7152   51.2564   42.5117 C   0  0  0  0  0  0
   75.6469   51.8672   41.7091 C   0  0  0  0  0  0
   74.7156   52.5958   42.3599 C   0  0  0  0  0  0
   74.7624   52.7581   43.7471 N   0  0  0  0  0  0
   75.7023   52.2182   44.5484 C   0  0  0  0  0  0
   75.6665   52.3767   45.7684 O   0  0  0  0  0  0
   76.7303   51.4438   43.8559 C   0  0  0  0  0  0
   77.7066   50.8711   44.7216 C   0  0  0  0  0  0
   78.4723   50.4247   45.4646 N   0  0  0  0  0  0
   73.5301   53.2752   41.6754 C   0  0  2  0  0  0
   73.5536   53.2080   40.1403 C   0  0  0  0  0  0
   74.1629   51.9154   39.6394 C   0  0  0  0  0  0
   75.5862   51.7783   40.1806 N   0  0  0  0  0  0
   72.6664   52.6907   41.9933 H   0  0  0  0  0  0
   72.5491   53.3463   39.7375 H   0  0  0  0  0  0
   74.1721   53.9906   39.7152 H   0  0  0  0  0  0
   74.0228   53.3179   44.1572 H   0  0  0  0  0  0
   78.2659   50.0552   41.5379 R   0  0  0  0  0  0
   73.5564   51.0654   39.9852 H   0  0  0  0  0  0
   74.1880   51.9241   38.5497 H   0  0  0  0  0  0
   76.4340   51.6429   39.6486 H   0  0  0  0  0  0
   74.2544   64.4050   44.1245 C   0  0  0  0  0  0
   74.3156   62.9649   43.7092 C   0  0  0  0  0  0
   73.0931   62.6225   42.9103 C   0  0  0  0  0  0
   73.1543   61.1824   42.4951 C   0  0  0  0  0  0
   71.9318   60.8400   41.6962 C   0  0  0  0  0  0
   71.9930   59.4000   41.2809 C   0  0  0  0  0  0
   72.0527   58.5298   42.5012 C   0  0  0  0  0  0
   72.1139   57.0897   42.0860 C   0  0  0  0  0  0
   72.1736   56.2196   43.3063 C   0  0  2  0  0  0
   73.2983   56.5346   44.0413 O   0  0  0  0  0  0
   72.2348   54.7795   42.8911 C   0  0  0  0  0  0
   73.3609   54.5702   42.1213 O   0  0  0  0  0  0
   75.1428   64.6538   44.7050 H   0  0  0  0  0  0
   74.2110   65.0373   43.2377 H   0  0  0  0  0  0
   73.3650   64.5703   44.7325 H   0  0  0  0  0  0
   74.3590   62.3326   44.5960 H   0  0  0  0  0  0
   75.2051   62.7996   43.1012 H   0  0  0  0  0  0
   73.0497   63.2548   42.0235 H   0  0  0  0  0  0
   72.2037   62.7878   43.5183 H   0  0  0  0  0  0
   73.1977   60.5501   43.3818 H   0  0  0  0  0  0
   74.0437   61.0171   41.8871 H   0  0  0  0  0  0
   71.8884   61.4724   40.8094 H   0  0  0  0  0  0
   71.0424   61.0054   42.3042 H   0  0  0  0  0  0
   72.8824   59.2346   40.6729 H   0  0  0  0  0  0
   71.1046   59.1512   40.7004 H   0  0  0  0  0  0
   71.1633   58.6951   43.1092 H   0  0  0  0  0  0
   72.9411   58.7786   43.0818 H   0  0  0  0  0  0
   73.0034   56.9244   41.4780 H   0  0  0  0  0  0
   71.2256   56.8409   41.5055 H   0  0  0  0  0  0
   71.2842   56.3849   43.9143 H   0  0  0  0  0  0
   71.3465   54.5307   42.3105 H   0  0  0  0  0  0
   72.2782   54.1472   43.7779 H   0  0  0  0  0  0
   74.1660   56.4121   43.5595 H   0  0  0  0  0  0
  1  2  1  0  0  0
  1  7  2  0  0  0
  1 18  1  0  0  0
  2  3  2  0  0  0
  2 13  1  0  0  0
  3  4  1  0  0  0
  3 10  1  0  0  0
  4  5  1  0  0  0
  4 17  1  0  0  0
  5  6  2  0  0  0
  5  7  1  0  0  0
  7  8  1  0  0  0
  8  9  3  0  0  0
 10 11  1  0  0  0
 10 14  1  0  0  0
 10 33  1  0  0  0
 11 12  1  0  0  0
 11 15  1  0  0  0
 11 16  1  0  0  0
 12 13  1  0  0  0
 12 19  1  0  0  0
 12 20  1  0  0  0
 13 21  1  0  0  0
 22 23  1  0  0  0
 22 34  1  0  0  0
 22 35  1  0  0  0
 22 36  1  0  0  0
 23 24  1  0  0  0
 23 37  1  0  0  0
 23 38  1  0  0  0
 24 25  1  0  0  0
 24 39  1  0  0  0
 24 40  1  0  0  0
 25 26  1  0  0  0
 25 41  1  0  0  0
 25 42  1  0  0  0
 26 27  1  0  0  0
 26 43  1  0  0  0
 26 44  1  0  0  0
 27 28  1  0  0  0
 27 45  1  0  0  0
 27 46  1  0  0  0
 28 29  1  0  0  0
 28 47  1  0  0  0
 28 48  1  0  0  0
 29 30  1  0  0  0
 29 49  1  0  0  0
 29 50  1  0  0  0
 30 31  1  0  0  0
 30 32  1  0  0  0
 30 51  1  0  0  0
 31 54  1  0  0  0
 32 33  1  0  0  0
 32 52  1  0  0  0
 32 53  1  0  0  0
M  END
> <b_m_subgroup_collapsed>
1

> <s_m_subgroup_title>
enumerate_140-out

> <s_m_subgroupid>
enumerate_140-out

$$$$
