9786-4
                    3D
 Schrodinger Suite 2024-3.
 49 52  0  0  1  0            999 V2000
   76.7152   51.2564   42.5117 C   0  0  0  0  0  0
   75.6469   51.8672   41.7091 C   0  0  0  0  0  0
   74.7156   52.5958   42.3599 C   0  0  0  0  0  0
   74.7624   52.7581   43.7471 N   0  0  0  0  0  0
   75.7023   52.2182   44.5484 C   0  0  0  0  0  0
   75.6665   52.3767   45.7684 O   0  0  0  0  0  0
   76.7303   51.4438   43.8559 C   0  0  0  0  0  0
   77.7066   50.8711   44.7216 C   0  0  0  0  0  0
   78.4723   50.4247   45.4646 N   0  0  0  0  0  0
   73.5301   53.2752   41.6754 C   0  0  2  0  0  0
   73.5536   53.2080   40.1403 C   0  0  0  0  0  0
   74.1629   51.9154   39.6394 C   0  0  0  0  0  0
   75.5862   51.7783   40.1806 N   0  0  0  0  0  0
   72.6664   52.6907   41.9933 H   0  0  0  0  0  0
   72.5491   53.3463   39.7375 H   0  0  0  0  0  0
   74.1721   53.9906   39.7152 H   0  0  0  0  0  0
   74.0228   53.3179   44.1572 H   0  0  0  0  0  0
   78.2659   50.0552   41.5379 R   0  0  0  0  0  0
   73.5564   51.0654   39.9852 H   0  0  0  0  0  0
   74.1880   51.9241   38.5497 H   0  0  0  0  0  0
   76.4340   51.6429   39.6486 H   0  0  0  0  0  0
   73.3462   54.6828   42.1601 C   0  0  2  0  0  0
   72.0346   55.2728   41.6157 C   0  0  0  0  0  0
   72.3972   56.6586   41.0763 C   0  0  0  0  0  0
   73.8391   56.4979   40.5983 C   0  0  0  0  0  0
   74.4765   55.5968   41.6586 C   0  0  2  0  0  0
   75.5535   54.8885   41.1657 O   0  0  0  0  0  0
   76.7512   55.1259   41.8087 C   0  0  0  0  0  0
   77.2250   56.5123   41.4872 C   0  0  0  0  0  0
   76.8477   57.5800   42.2930 C   0  0  0  0  0  0
   77.2867   58.8646   41.9951 C   0  0  0  0  0  0
   78.1030   59.0815   40.8914 C   0  0  0  0  0  0
   78.4803   58.0139   40.0856 C   0  0  0  0  0  0
   78.0413   56.7293   40.3835 C   0  0  0  0  0  0
   73.3404   54.6446   43.2512 H   0  0  0  0  0  0
   71.6619   54.6493   40.8002 H   0  0  0  0  0  0
   71.2476   55.3151   42.3708 H   0  0  0  0  0  0
   72.3510   57.3971   41.8796 H   0  0  0  0  0  0
   71.7238   56.9940   40.2856 H   0  0  0  0  0  0
   74.3573   57.4520   40.4873 H   0  0  0  0  0  0
   73.8563   56.0017   39.6255 H   0  0  0  0  0  0
   74.8471   56.2090   42.4835 H   0  0  0  0  0  0
   76.6108   55.0305   42.8854 H   0  0  0  0  0  0
   77.4934   54.4014   41.4734 H   0  0  0  0  0  0
   76.2121   57.4111   43.1523 H   0  0  0  0  0  0
   76.9929   59.6958   42.6225 H   0  0  0  0  0  0
   78.4447   60.0816   40.6595 H   0  0  0  0  0  0
   79.1158   58.1828   39.2263 H   0  0  0  0  0  0
   78.3351   55.8981   39.7561 H   0  0  0  0  0  0
  1  2  1  0  0  0
  1  7  2  0  0  0
  1 18  1  0  0  0
  2  3  2  0  0  0
  2 13  1  0  0  0
  3  4  1  0  0  0
  3 10  1  0  0  0
  4  5  1  0  0  0
  4 17  1  0  0  0
  5  6  2  0  0  0
  5  7  1  0  0  0
  7  8  1  0  0  0
  8  9  3  0  0  0
 10 11  1  0  0  0
 10 14  1  0  0  0
 10 22  1  0  0  0
 11 12  1  0  0  0
 11 15  1  0  0  0
 11 16  1  0  0  0
 12 13  1  0  0  0
 12 19  1  0  0  0
 12 20  1  0  0  0
 13 21  1  0  0  0
 22 23  1  0  0  0
 22 26  1  0  0  0
 22 35  1  0  0  0
 23 24  1  0  0  0
 23 36  1  0  0  0
 23 37  1  0  0  0
 24 25  1  0  0  0
 24 38  1  0  0  0
 24 39  1  0  0  0
 25 26  1  0  0  0
 25 40  1  0  0  0
 25 41  1  0  0  0
 26 27  1  0  0  0
 26 42  1  0  0  0
 27 28  1  0  0  0
 28 29  1  0  0  0
 28 43  1  0  0  0
 28 44  1  0  0  0
 29 30  2  0  0  0
 29 34  1  0  0  0
 30 31  1  0  0  0
 30 45  1  0  0  0
 31 32  2  0  0  0
 31 46  1  0  0  0
 32 33  1  0  0  0
 32 47  1  0  0  0
 33 34  2  0  0  0
 33 48  1  0  0  0
 34 49  1  0  0  0
M  END
> <b_m_subgroup_collapsed>
1

> <s_m_subgroup_title>
enumerate_139-out

> <s_m_subgroupid>
enumerate_139-out

$$$$
