1710-1
                    3D
 Schrodinger Suite 2024-3.
 46 50  0  0  1  0            999 V2000
   76.7152   51.2564   42.5117 C   0  0  0  0  0  0
   75.6469   51.8672   41.7091 C   0  0  0  0  0  0
   74.7156   52.5958   42.3599 C   0  0  0  0  0  0
   74.7624   52.7581   43.7471 N   0  0  0  0  0  0
   75.7023   52.2182   44.5484 C   0  0  0  0  0  0
   75.6665   52.3767   45.7684 O   0  0  0  0  0  0
   76.7303   51.4438   43.8559 C   0  0  0  0  0  0
   77.7066   50.8711   44.7216 C   0  0  0  0  0  0
   78.4723   50.4247   45.4646 N   0  0  0  0  0  0
   73.5301   53.2752   41.6754 C   0  0  2  0  0  0
   73.5536   53.2080   40.1403 C   0  0  0  0  0  0
   74.1629   51.9154   39.6394 C   0  0  0  0  0  0
   75.5862   51.7783   40.1806 N   0  0  0  0  0  0
   72.6664   52.6907   41.9933 H   0  0  0  0  0  0
   72.5491   53.3463   39.7375 H   0  0  0  0  0  0
   74.1721   53.9906   39.7152 H   0  0  0  0  0  0
   74.0228   53.3179   44.1572 H   0  0  0  0  0  0
   78.2659   50.0552   41.5379 R   0  0  0  0  0  0
   73.5564   51.0654   39.9852 H   0  0  0  0  0  0
   74.1880   51.9241   38.5497 H   0  0  0  0  0  0
   76.4340   51.6429   39.6486 H   0  0  0  0  0  0
   73.3462   54.6828   42.1601 C   0  0  0  0  0  0
   72.0551   54.7713   43.0031 C   0  0  0  0  0  0
   71.8662   56.2209   43.5015 C   0  0  2  0  0  0
   71.7561   57.1727   42.2901 C   0  0  0  0  0  0
   73.0474   57.0825   41.4478 C   0  0  1  0  0  0
   74.2582   57.4916   42.3150 C   0  0  0  0  0  0
   74.3668   56.5395   43.5262 C   0  0  1  0  0  0
   73.0763   56.6293   44.3699 C   0  0  0  0  0  0
   74.5575   55.0903   43.0275 C   0  0  0  0  0  0
   73.2369   55.6335   40.9478 C   0  0  0  0  0  0
   71.1941   54.4605   42.4098 H   0  0  0  0  0  0
   72.1083   54.0849   43.8491 H   0  0  0  0  0  0
   70.9545   56.2841   44.0968 H   0  0  0  0  0  0
   71.5961   58.1975   42.6279 H   0  0  0  0  0  0
   70.8891   56.9116   41.6818 H   0  0  0  0  0  0
   72.9704   57.7544   40.5921 H   0  0  0  0  0  0
   75.1747   57.4581   41.7245 H   0  0  0  0  0  0
   74.1492   58.5228   42.6536 H   0  0  0  0  0  0
   75.2218   56.8279   44.1390 H   0  0  0  0  0  0
   72.9434   57.6427   44.7506 H   0  0  0  0  0  0
   73.1503   55.9807   45.2439 H   0  0  0  0  0  0
   74.6624   54.4101   43.8738 H   0  0  0  0  0  0
   75.4800   55.0073   42.4513 H   0  0  0  0  0  0
   74.1321   55.5614   40.3288 H   0  0  0  0  0  0
   72.4002   55.3408   40.3121 H   0  0  0  0  0  0
  1  2  1  0  0  0
  1  7  2  0  0  0
  1 18  1  0  0  0
  2  3  2  0  0  0
  2 13  1  0  0  0
  3  4  1  0  0  0
  3 10  1  0  0  0
  4  5  1  0  0  0
  4 17  1  0  0  0
  5  6  2  0  0  0
  5  7  1  0  0  0
  7  8  1  0  0  0
  8  9  3  0  0  0
 10 11  1  0  0  0
 10 14  1  0  0  0
 10 22  1  0  0  0
 11 12  1  0  0  0
 11 15  1  0  0  0
 11 16  1  0  0  0
 12 13  1  0  0  0
 12 19  1  0  0  0
 12 20  1  0  0  0
 13 21  1  0  0  0
 22 23  1  0  0  0
 22 30  1  0  0  0
 22 31  1  0  0  0
 23 24  1  0  0  0
 23 32  1  0  0  0
 23 33  1  0  0  0
 24 25  1  0  0  0
 24 29  1  0  0  0
 24 34  1  0  0  0
 25 26  1  0  0  0
 25 35  1  0  0  0
 25 36  1  0  0  0
 26 27  1  0  0  0
 26 31  1  0  0  0
 26 37  1  0  0  0
 27 28  1  0  0  0
 27 38  1  0  0  0
 27 39  1  0  0  0
 28 29  1  0  0  0
 28 30  1  0  0  0
 28 40  1  0  0  0
 29 41  1  0  0  0
 29 42  1  0  0  0
 30 43  1  0  0  0
 30 44  1  0  0  0
 31 45  1  0  0  0
 31 46  1  0  0  0
M  END
> <b_m_subgroup_collapsed>
1

> <s_m_subgroup_title>
enumerate_139-out

> <s_m_subgroupid>
enumerate_139-out

$$$$
