20584-2
                    3D
 Schrodinger Suite 2024-3.
 39 41  0  0  1  0            999 V2000
   76.7152   51.2564   42.5117 C   0  0  0  0  0  0
   75.6469   51.8672   41.7091 C   0  0  0  0  0  0
   74.7156   52.5958   42.3599 C   0  0  0  0  0  0
   74.7624   52.7581   43.7471 N   0  0  0  0  0  0
   75.7023   52.2182   44.5484 C   0  0  0  0  0  0
   75.6665   52.3767   45.7684 O   0  0  0  0  0  0
   76.7303   51.4438   43.8559 C   0  0  0  0  0  0
   77.7066   50.8711   44.7216 C   0  0  0  0  0  0
   78.4723   50.4247   45.4646 N   0  0  0  0  0  0
   73.5301   53.2752   41.6754 C   0  0  2  0  0  0
   73.5536   53.2080   40.1403 C   0  0  0  0  0  0
   74.1629   51.9154   39.6394 C   0  0  0  0  0  0
   75.5862   51.7783   40.1806 N   0  0  0  0  0  0
   72.6664   52.6907   41.9933 H   0  0  0  0  0  0
   72.5491   53.3463   39.7375 H   0  0  0  0  0  0
   74.1721   53.9906   39.7152 H   0  0  0  0  0  0
   74.0228   53.3179   44.1572 H   0  0  0  0  0  0
   78.2659   50.0552   41.5379 R   0  0  0  0  0  0
   73.5564   51.0654   39.9852 H   0  0  0  0  0  0
   74.1880   51.9241   38.5497 H   0  0  0  0  0  0
   76.4340   51.6429   39.6486 H   0  0  0  0  0  0
   73.3511   54.6452   42.1472 N   0  0  0  0  0  0
   74.1714   55.6651   41.8928 C   0  0  0  0  0  0
   75.1892   55.5495   41.2163 O   0  0  0  0  0  0
   73.6938   56.9370   42.5285 C   0  0  1  0  0  0
   74.1134   58.2578   41.9239 C   0  0  0  0  0  0
   72.6829   57.7865   41.7921 C   0  0  0  0  0  0
   72.1919   57.3284   40.4508 C   0  0  0  0  0  0
   71.6144   58.4861   42.5788 C   0  0  0  0  0  0
   73.6211   56.8538   43.6151 H   0  0  0  0  0  0
   74.3334   59.0959   42.5887 H   0  0  0  0  0  0
   74.7539   58.2530   41.0393 H   0  0  0  0  0  0
   71.4737   58.0499   40.0610 H   0  0  0  0  0  0
   73.0343   57.2469   39.7639 H   0  0  0  0  0  0
   71.7108   56.3557   40.5528 H   0  0  0  0  0  0
   70.9745   59.0506   41.9005 H   0  0  0  0  0  0
   71.0157   57.7490   43.1140 H   0  0  0  0  0  0
   72.0765   59.1671   43.2936 H   0  0  0  0  0  0
   72.5056   54.6958   42.6973 H   0  0  0  0  0  0
  1  2  1  0  0  0
  1  7  2  0  0  0
  1 18  1  0  0  0
  2  3  2  0  0  0
  2 13  1  0  0  0
  3  4  1  0  0  0
  3 10  1  0  0  0
  4  5  1  0  0  0
  4 17  1  0  0  0
  5  6  2  0  0  0
  5  7  1  0  0  0
  7  8  1  0  0  0
  8  9  3  0  0  0
 10 11  1  0  0  0
 10 14  1  0  0  0
 10 22  1  0  0  0
 11 12  1  0  0  0
 11 15  1  0  0  0
 11 16  1  0  0  0
 12 13  1  0  0  0
 12 19  1  0  0  0
 12 20  1  0  0  0
 13 21  1  0  0  0
 22 23  1  0  0  0
 22 39  1  0  0  0
 23 24  2  0  0  0
 23 25  1  0  0  0
 25 26  1  0  0  0
 25 27  1  0  0  0
 25 30  1  0  0  0
 26 27  1  0  0  0
 26 31  1  0  0  0
 26 32  1  0  0  0
 27 28  1  0  0  0
 27 29  1  0  0  0
 28 33  1  0  0  0
 28 34  1  0  0  0
 28 35  1  0  0  0
 29 36  1  0  0  0
 29 37  1  0  0  0
 29 38  1  0  0  0
M  END
> <b_m_subgroup_collapsed>
1

> <s_m_subgroup_title>
enumerate_139-out

> <s_m_subgroupid>
enumerate_139-out

$$$$
