31005-1
                    3D
 Schrodinger Suite 2024-3.
 41 43  0  0  1  0            999 V2000
   76.7152   51.2564   42.5117 C   0  0  0  0  0  0
   75.6469   51.8672   41.7091 C   0  0  0  0  0  0
   74.7156   52.5958   42.3599 C   0  0  0  0  0  0
   74.7624   52.7581   43.7471 N   0  0  0  0  0  0
   75.7023   52.2182   44.5484 C   0  0  0  0  0  0
   75.6665   52.3767   45.7684 O   0  0  0  0  0  0
   76.7303   51.4438   43.8559 C   0  0  0  0  0  0
   77.7066   50.8711   44.7216 C   0  0  0  0  0  0
   78.4723   50.4247   45.4646 N   0  0  0  0  0  0
   73.5301   53.2752   41.6754 C   0  0  2  0  0  0
   73.5536   53.2080   40.1403 C   0  0  0  0  0  0
   74.1629   51.9154   39.6394 C   0  0  0  0  0  0
   75.5862   51.7783   40.1806 N   0  0  0  0  0  0
   72.6664   52.6907   41.9933 H   0  0  0  0  0  0
   72.5491   53.3463   39.7375 H   0  0  0  0  0  0
   74.1721   53.9906   39.7152 H   0  0  0  0  0  0
   74.0228   53.3179   44.1572 H   0  0  0  0  0  0
   78.2659   50.0552   41.5379 R   0  0  0  0  0  0
   73.5564   51.0654   39.9852 H   0  0  0  0  0  0
   74.1880   51.9241   38.5497 H   0  0  0  0  0  0
   76.4340   51.6429   39.6486 H   0  0  0  0  0  0
   73.3462   54.6828   42.1601 C   0  0  2  0  0  0
   72.0346   55.2728   41.6157 C   0  0  0  0  0  0
   72.3972   56.6586   41.0763 C   0  0  0  0  0  0
   73.8391   56.4979   40.5983 C   0  0  1  0  0  0
   74.5513   57.8091   40.4458 C   0  0  0  0  0  0
   74.4765   55.5968   41.6586 C   0  0  1  0  0  0
   74.9856   56.4377   42.7916 C   0  0  0  0  0  0
   73.3404   54.6446   43.2512 H   0  0  0  0  0  0
   71.6619   54.6493   40.8002 H   0  0  0  0  0  0
   71.2476   55.3151   42.3708 H   0  0  0  0  0  0
   71.7238   56.9940   40.2856 H   0  0  0  0  0  0
   72.3510   57.3971   41.8796 H   0  0  0  0  0  0
   73.8563   56.0017   39.6255 H   0  0  0  0  0  0
   74.5539   58.3344   41.4009 H   0  0  0  0  0  0
   75.5781   57.6299   40.1269 H   0  0  0  0  0  0
   74.0395   58.4159   39.6988 H   0  0  0  0  0  0
   75.3283   55.0365   41.2688 H   0  0  0  0  0  0
   74.1634   57.0167   43.2123 H   0  0  0  0  0  0
   75.4071   55.7924   43.5622 H   0  0  0  0  0  0
   75.7561   57.1152   42.4236 H   0  0  0  0  0  0
  1  2  1  0  0  0
  1  7  2  0  0  0
  1 18  1  0  0  0
  2  3  2  0  0  0
  2 13  1  0  0  0
  3  4  1  0  0  0
  3 10  1  0  0  0
  4  5  1  0  0  0
  4 17  1  0  0  0
  5  6  2  0  0  0
  5  7  1  0  0  0
  7  8  1  0  0  0
  8  9  3  0  0  0
 10 11  1  0  0  0
 10 14  1  0  0  0
 10 22  1  0  0  0
 11 12  1  0  0  0
 11 15  1  0  0  0
 11 16  1  0  0  0
 12 13  1  0  0  0
 12 19  1  0  0  0
 12 20  1  0  0  0
 13 21  1  0  0  0
 22 23  1  0  0  0
 22 27  1  0  0  0
 22 29  1  0  0  0
 23 24  1  0  0  0
 23 30  1  0  0  0
 23 31  1  0  0  0
 24 25  1  0  0  0
 24 32  1  0  0  0
 24 33  1  0  0  0
 25 26  1  0  0  0
 25 27  1  0  0  0
 25 34  1  0  0  0
 26 35  1  0  0  0
 26 36  1  0  0  0
 26 37  1  0  0  0
 27 28  1  0  0  0
 27 38  1  0  0  0
 28 39  1  0  0  0
 28 40  1  0  0  0
 28 41  1  0  0  0
M  END
> <b_m_subgroup_collapsed>
1

> <s_m_subgroup_title>
enumerate_139-out

> <s_m_subgroupid>
enumerate_139-out

$$$$
