13579-2
                    3D
 Schrodinger Suite 2024-3.
 41 42  0  0  1  0            999 V2000
   76.7152   51.2564   42.5117 C   0  0  0  0  0  0
   75.6469   51.8672   41.7091 C   0  0  0  0  0  0
   74.7156   52.5958   42.3599 C   0  0  0  0  0  0
   74.7624   52.7581   43.7471 N   0  0  0  0  0  0
   75.7023   52.2182   44.5484 C   0  0  0  0  0  0
   75.6665   52.3767   45.7684 O   0  0  0  0  0  0
   76.7303   51.4438   43.8559 C   0  0  0  0  0  0
   77.7066   50.8711   44.7216 C   0  0  0  0  0  0
   78.4723   50.4247   45.4646 N   0  0  0  0  0  0
   73.5301   53.2752   41.6754 C   0  0  2  0  0  0
   73.5536   53.2080   40.1403 C   0  0  0  0  0  0
   74.1629   51.9154   39.6394 C   0  0  0  0  0  0
   75.5862   51.7783   40.1806 N   0  0  0  0  0  0
   72.6664   52.6907   41.9933 H   0  0  0  0  0  0
   72.5491   53.3463   39.7375 H   0  0  0  0  0  0
   74.1721   53.9906   39.7152 H   0  0  0  0  0  0
   74.0228   53.3179   44.1572 H   0  0  0  0  0  0
   78.2659   50.0552   41.5379 R   0  0  0  0  0  0
   73.5564   51.0654   39.9852 H   0  0  0  0  0  0
   74.1880   51.9241   38.5497 H   0  0  0  0  0  0
   76.4340   51.6429   39.6486 H   0  0  0  0  0  0
   70.1561   54.6516   44.6697 C   0  0  0  0  0  0
   70.9609   54.4333   43.5702 O   0  0  0  0  0  0
   71.2054   55.5491   42.7958 C   0  0  0  0  0  0
   72.0872   55.1734   41.6419 C   0  0  2  0  0  0
   73.3511   54.6452   42.1472 N   0  0  0  0  0  0
   72.3530   56.3862   40.8002 C   0  0  1  0  0  0
   71.0545   56.9288   40.2811 C   0  0  0  0  0  0
   72.9808   57.3483   41.5648 O   0  0  0  0  0  0
   70.0228   53.7165   45.2138 H   0  0  0  0  0  0
   70.6246   55.3881   45.3225 H   0  0  0  0  0  0
   69.1851   55.0225   44.3414 H   0  0  0  0  0  0
   71.7013   56.3090   43.3997 H   0  0  0  0  0  0
   70.2618   55.9434   42.4186 H   0  0  0  0  0  0
   71.5913   54.4135   41.0380 H   0  0  0  0  0  0
   73.3411   54.6555   43.1571 H   0  0  0  0  0  0
   72.9937   56.1132   39.9617 H   0  0  0  0  0  0
   70.5586   56.1689   39.6772 H   0  0  0  0  0  0
   70.4137   57.2018   41.1195 H   0  0  0  0  0  0
   71.2476   57.8101   39.6694 H   0  0  0  0  0  0
   73.8839   57.6256   41.2370 H   0  0  0  0  0  0
  1  2  1  0  0  0
  1  7  2  0  0  0
  1 18  1  0  0  0
  2  3  2  0  0  0
  2 13  1  0  0  0
  3  4  1  0  0  0
  3 10  1  0  0  0
  4  5  1  0  0  0
  4 17  1  0  0  0
  5  6  2  0  0  0
  5  7  1  0  0  0
  7  8  1  0  0  0
  8  9  3  0  0  0
 10 11  1  0  0  0
 10 14  1  0  0  0
 10 26  1  0  0  0
 11 12  1  0  0  0
 11 15  1  0  0  0
 11 16  1  0  0  0
 12 13  1  0  0  0
 12 19  1  0  0  0
 12 20  1  0  0  0
 13 21  1  0  0  0
 22 23  1  0  0  0
 22 30  1  0  0  0
 22 31  1  0  0  0
 22 32  1  0  0  0
 23 24  1  0  0  0
 24 25  1  0  0  0
 24 33  1  0  0  0
 24 34  1  0  0  0
 25 26  1  0  0  0
 25 27  1  0  0  0
 25 35  1  0  0  0
 26 36  1  0  0  0
 27 28  1  0  0  0
 27 29  1  0  0  0
 27 37  1  0  0  0
 28 38  1  0  0  0
 28 39  1  0  0  0
 28 40  1  0  0  0
 29 41  1  0  0  0
M  END
> <b_m_subgroup_collapsed>
1

> <s_m_subgroup_title>
enumerate_140-out

> <s_m_subgroupid>
enumerate_140-out

$$$$
