39682-1
                    3D
 Schrodinger Suite 2024-3.
 41 42  0  0  1  0            999 V2000
   76.7152   51.2564   42.5117 C   0  0  0  0  0  0
   75.6469   51.8672   41.7091 C   0  0  0  0  0  0
   74.7156   52.5958   42.3599 C   0  0  0  0  0  0
   74.7624   52.7581   43.7471 N   0  0  0  0  0  0
   75.7023   52.2182   44.5484 C   0  0  0  0  0  0
   75.6665   52.3767   45.7684 O   0  0  0  0  0  0
   76.7303   51.4438   43.8559 C   0  0  0  0  0  0
   77.7066   50.8711   44.7216 C   0  0  0  0  0  0
   78.4723   50.4247   45.4646 N   0  0  0  0  0  0
   73.5301   53.2752   41.6754 C   0  0  2  0  0  0
   73.5536   53.2080   40.1403 C   0  0  0  0  0  0
   74.1629   51.9154   39.6394 C   0  0  0  0  0  0
   75.5862   51.7783   40.1806 N   0  0  0  0  0  0
   72.6664   52.6907   41.9933 H   0  0  0  0  0  0
   72.5491   53.3463   39.7375 H   0  0  0  0  0  0
   74.1721   53.9906   39.7152 H   0  0  0  0  0  0
   74.0228   53.3179   44.1572 H   0  0  0  0  0  0
   78.2659   50.0552   41.5379 R   0  0  0  0  0  0
   73.5564   51.0654   39.9852 H   0  0  0  0  0  0
   74.1880   51.9241   38.5497 H   0  0  0  0  0  0
   76.4340   51.6429   39.6486 H   0  0  0  0  0  0
   74.8035   57.7212   45.8488 C   0  0  0  0  0  0
   73.5812   57.6168   44.9856 C   0  0  0  0  0  0
   73.5192   56.2503   44.3699 C   0  0  0  0  0  0
   72.2969   56.1459   43.5067 C   0  0  0  0  0  0
   72.2348   54.7795   42.8911 C   0  0  1  0  0  0
   71.0126   54.6751   42.0278 C   0  0  0  0  0  0
   73.3609   54.5702   42.1213 O   0  0  0  0  0  0
   74.8486   58.7141   46.2962 H   0  0  0  0  0  0
   74.7571   56.9695   46.6368 H   0  0  0  0  0  0
   75.6929   57.5559   45.2408 H   0  0  0  0  0  0
   73.6276   58.3685   44.1976 H   0  0  0  0  0  0
   72.6918   57.7821   45.5936 H   0  0  0  0  0  0
   73.4728   55.4986   45.1579 H   0  0  0  0  0  0
   74.4086   56.0850   43.7619 H   0  0  0  0  0  0
   72.3433   56.8977   42.7188 H   0  0  0  0  0  0
   71.4075   56.3113   44.1147 H   0  0  0  0  0  0
   72.1884   54.0277   43.6790 H   0  0  0  0  0  0
   70.1231   54.8404   42.6358 H   0  0  0  0  0  0
   71.0589   55.4268   41.2399 H   0  0  0  0  0  0
   70.9675   53.6821   41.5805 H   0  0  0  0  0  0
  1  2  1  0  0  0
  1  7  2  0  0  0
  1 18  1  0  0  0
  2  3  2  0  0  0
  2 13  1  0  0  0
  3  4  1  0  0  0
  3 10  1  0  0  0
  4  5  1  0  0  0
  4 17  1  0  0  0
  5  6  2  0  0  0
  5  7  1  0  0  0
  7  8  1  0  0  0
  8  9  3  0  0  0
 10 11  1  0  0  0
 10 14  1  0  0  0
 10 28  1  0  0  0
 11 12  1  0  0  0
 11 15  1  0  0  0
 11 16  1  0  0  0
 12 13  1  0  0  0
 12 19  1  0  0  0
 12 20  1  0  0  0
 13 21  1  0  0  0
 22 23  1  0  0  0
 22 29  1  0  0  0
 22 30  1  0  0  0
 22 31  1  0  0  0
 23 24  1  0  0  0
 23 32  1  0  0  0
 23 33  1  0  0  0
 24 25  1  0  0  0
 24 34  1  0  0  0
 24 35  1  0  0  0
 25 26  1  0  0  0
 25 36  1  0  0  0
 25 37  1  0  0  0
 26 27  1  0  0  0
 26 28  1  0  0  0
 26 38  1  0  0  0
 27 39  1  0  0  0
 27 40  1  0  0  0
 27 41  1  0  0  0
M  END
> <b_m_subgroup_collapsed>
1

> <s_m_subgroup_title>
enumerate_140-out

> <s_m_subgroupid>
enumerate_140-out

$$$$
