20763-3
                    3D
 Schrodinger Suite 2024-3.
 38 41  0  0  1  0            999 V2000
   76.7152   51.2564   42.5117 C   0  0  0  0  0  0
   75.6469   51.8672   41.7091 C   0  0  0  0  0  0
   74.7156   52.5958   42.3599 C   0  0  0  0  0  0
   74.7624   52.7581   43.7471 N   0  0  0  0  0  0
   75.7023   52.2182   44.5484 C   0  0  0  0  0  0
   75.6665   52.3767   45.7684 O   0  0  0  0  0  0
   76.7303   51.4438   43.8559 C   0  0  0  0  0  0
   77.7066   50.8711   44.7216 C   0  0  0  0  0  0
   78.4723   50.4247   45.4646 N   0  0  0  0  0  0
   73.5301   53.2752   41.6754 C   0  0  2  0  0  0
   73.5536   53.2080   40.1403 C   0  0  0  0  0  0
   74.1629   51.9154   39.6394 C   0  0  0  0  0  0
   75.5862   51.7783   40.1806 N   0  0  0  0  0  0
   72.6664   52.6907   41.9933 H   0  0  0  0  0  0
   72.5491   53.3463   39.7375 H   0  0  0  0  0  0
   74.1721   53.9906   39.7152 H   0  0  0  0  0  0
   74.0228   53.3179   44.1572 H   0  0  0  0  0  0
   78.2659   50.0552   41.5379 R   0  0  0  0  0  0
   73.5564   51.0654   39.9852 H   0  0  0  0  0  0
   74.1880   51.9241   38.5497 H   0  0  0  0  0  0
   76.4340   51.6429   39.6486 H   0  0  0  0  0  0
   73.3511   54.6452   42.1472 N   0  0  0  0  0  0
   74.4434   55.4804   41.6719 C   0  0  0  0  0  0
   73.8741   56.8932   41.6933 C   0  0  0  0  0  0
   72.3834   56.7003   41.4159 C   0  0  1  0  0  0
   72.1331   55.2221   41.5974 C   0  0  2  0  0  0
   71.5408   56.2103   42.5741 C   0  0  1  0  0  0
   72.0759   56.3051   43.9722 C   0  0  0  0  0  0
   73.3897   56.0868   43.9459 F   0  0  0  0  0  0
   71.8242   57.5236   44.4476 F   0  0  0  0  0  0
   71.4746   55.3866   44.7265 F   0  0  0  0  0  0
   75.3395   55.3773   42.2883 H   0  0  0  0  0  0
   74.7127   55.1947   40.6513 H   0  0  0  0  0  0
   74.0304   57.3677   42.6641 H   0  0  0  0  0  0
   74.3571   57.5236   40.9450 H   0  0  0  0  0  0
   71.9396   57.2459   40.5795 H   0  0  0  0  0  0
   71.5078   54.6603   40.8938 H   0  0  0  0  0  0
   70.4638   56.3824   42.5434 H   0  0  0  0  0  0
  1  2  1  0  0  0
  1  7  2  0  0  0
  1 18  1  0  0  0
  2  3  2  0  0  0
  2 13  1  0  0  0
  3  4  1  0  0  0
  3 10  1  0  0  0
  4  5  1  0  0  0
  4 17  1  0  0  0
  5  6  2  0  0  0
  5  7  1  0  0  0
  7  8  1  0  0  0
  8  9  3  0  0  0
 10 11  1  0  0  0
 10 14  1  0  0  0
 10 22  1  0  0  0
 11 12  1  0  0  0
 11 15  1  0  0  0
 11 16  1  0  0  0
 12 13  1  0  0  0
 12 19  1  0  0  0
 12 20  1  0  0  0
 13 21  1  0  0  0
 22 23  1  0  0  0
 22 26  1  0  0  0
 23 24  1  0  0  0
 23 32  1  0  0  0
 23 33  1  0  0  0
 24 25  1  0  0  0
 24 34  1  0  0  0
 24 35  1  0  0  0
 25 26  1  0  0  0
 25 27  1  0  0  0
 25 36  1  0  0  0
 26 27  1  0  0  0
 26 37  1  0  0  0
 27 28  1  0  0  0
 27 38  1  0  0  0
 28 29  1  0  0  0
 28 30  1  0  0  0
 28 31  1  0  0  0
M  END
> <b_m_subgroup_collapsed>
1

> <s_m_subgroup_title>
enumerate_139-out

> <s_m_subgroupid>
enumerate_139-out

$$$$
