23405-1
                    3D
 Schrodinger Suite 2024-3.
 39 40  0  0  1  0            999 V2000
   76.7152   51.2564   42.5117 C   0  0  0  0  0  0
   75.6469   51.8672   41.7091 C   0  0  0  0  0  0
   74.7156   52.5958   42.3599 C   0  0  0  0  0  0
   74.7624   52.7581   43.7471 N   0  0  0  0  0  0
   75.7023   52.2182   44.5484 C   0  0  0  0  0  0
   75.6665   52.3767   45.7684 O   0  0  0  0  0  0
   76.7303   51.4438   43.8559 C   0  0  0  0  0  0
   77.7066   50.8711   44.7216 C   0  0  0  0  0  0
   78.4723   50.4247   45.4646 N   0  0  0  0  0  0
   73.5301   53.2752   41.6754 C   0  0  2  0  0  0
   73.5536   53.2080   40.1403 C   0  0  0  0  0  0
   74.1629   51.9154   39.6394 C   0  0  0  0  0  0
   75.5862   51.7783   40.1806 N   0  0  0  0  0  0
   72.6664   52.6907   41.9933 H   0  0  0  0  0  0
   72.5491   53.3463   39.7375 H   0  0  0  0  0  0
   74.1721   53.9906   39.7152 H   0  0  0  0  0  0
   74.0228   53.3179   44.1572 H   0  0  0  0  0  0
   78.2659   50.0552   41.5379 R   0  0  0  0  0  0
   73.5564   51.0654   39.9852 H   0  0  0  0  0  0
   74.1880   51.9241   38.5497 H   0  0  0  0  0  0
   76.4340   51.6429   39.6486 H   0  0  0  0  0  0
   73.3119   54.9455   42.2506 S   0  0  0  0  0  0
   74.4004   55.2377   43.1896 O   0  0  0  0  0  0
   73.0593   55.7897   41.0776 O   0  0  0  0  0  0
   71.8348   54.8606   43.1663 N   0  0  0  0  0  0
   70.7468   54.4225   42.2968 C   0  0  0  0  0  0
   71.5226   56.1787   43.7111 C   0  0  0  0  0  0
   72.6400   56.6274   44.6056 C   0  0  0  0  0  0
   70.2492   56.1048   44.5004 C   0  0  0  0  0  0
   69.8218   54.3695   42.8709 H   0  0  0  0  0  0
   70.6267   55.1331   41.4791 H   0  0  0  0  0  0
   70.9797   53.4379   41.8914 H   0  0  0  0  0  0
   71.4030   56.8904   42.8942 H   0  0  0  0  0  0
   72.4070   57.6115   45.0123 H   0  0  0  0  0  0
   72.7596   55.9157   45.4224 H   0  0  0  0  0  0
   73.5653   56.6812   44.0321 H   0  0  0  0  0  0
   70.0162   57.0889   44.9071 H   0  0  0  0  0  0
   69.4373   55.7787   43.8504 H   0  0  0  0  0  0
   70.3689   55.3931   45.3172 H   0  0  0  0  0  0
  1  2  1  0  0  0
  1  7  2  0  0  0
  1 18  1  0  0  0
  2  3  2  0  0  0
  2 13  1  0  0  0
  3  4  1  0  0  0
  3 10  1  0  0  0
  4  5  1  0  0  0
  4 17  1  0  0  0
  5  6  2  0  0  0
  5  7  1  0  0  0
  7  8  1  0  0  0
  8  9  3  0  0  0
 10 11  1  0  0  0
 10 14  1  0  0  0
 10 22  1  0  0  0
 11 12  1  0  0  0
 11 15  1  0  0  0
 11 16  1  0  0  0
 12 13  1  0  0  0
 12 19  1  0  0  0
 12 20  1  0  0  0
 13 21  1  0  0  0
 22 23  2  0  0  0
 22 24  2  0  0  0
 22 25  1  0  0  0
 25 26  1  0  0  0
 25 27  1  0  0  0
 26 30  1  0  0  0
 26 31  1  0  0  0
 26 32  1  0  0  0
 27 28  1  0  0  0
 27 29  1  0  0  0
 27 33  1  0  0  0
 28 34  1  0  0  0
 28 35  1  0  0  0
 28 36  1  0  0  0
 29 37  1  0  0  0
 29 38  1  0  0  0
 29 39  1  0  0  0
M  END
> <b_m_subgroup_collapsed>
1

> <s_m_subgroup_title>
enumerate_140-out

> <s_m_subgroupid>
enumerate_140-out

$$$$
