39351-1
                    3D
 Schrodinger Suite 2024-3.
 36 38  0  0  1  0            999 V2000
   76.7152   51.2564   42.5117 C   0  0  0  0  0  0
   75.6469   51.8672   41.7091 C   0  0  0  0  0  0
   74.7156   52.5958   42.3599 C   0  0  0  0  0  0
   74.7624   52.7581   43.7471 N   0  0  0  0  0  0
   75.7023   52.2182   44.5484 C   0  0  0  0  0  0
   75.6665   52.3767   45.7684 O   0  0  0  0  0  0
   76.7303   51.4438   43.8559 C   0  0  0  0  0  0
   77.7066   50.8711   44.7216 C   0  0  0  0  0  0
   78.4723   50.4247   45.4646 N   0  0  0  0  0  0
   73.5301   53.2752   41.6754 C   0  0  2  0  0  0
   73.5536   53.2080   40.1403 C   0  0  0  0  0  0
   74.1629   51.9154   39.6394 C   0  0  0  0  0  0
   75.5862   51.7783   40.1806 N   0  0  0  0  0  0
   72.6664   52.6907   41.9933 H   0  0  0  0  0  0
   72.5491   53.3463   39.7375 H   0  0  0  0  0  0
   74.1721   53.9906   39.7152 H   0  0  0  0  0  0
   74.0228   53.3179   44.1572 H   0  0  0  0  0  0
   78.2659   50.0552   41.5379 R   0  0  0  0  0  0
   73.5564   51.0654   39.9852 H   0  0  0  0  0  0
   74.1880   51.9241   38.5497 H   0  0  0  0  0  0
   76.4340   51.6429   39.6486 H   0  0  0  0  0  0
   73.3609   54.5702   42.1213 O   0  0  0  0  0  0
   72.2348   54.7795   42.8911 C   0  0  0  0  0  0
   71.2791   53.8484   43.2546 C   0  0  0  0  0  0
   70.3742   54.5450   44.0113 N   0  0  0  0  0  0
   69.1811   53.9596   44.6159 C   0  0  0  0  0  0
   70.6977   55.8424   44.1450 N   0  0  0  0  0  0
   71.8178   55.9822   43.4703 C   0  0  0  0  0  0
   72.5264   57.3000   43.3647 C   0  0  0  0  0  0
   71.1588   52.7907   43.0546 H   0  0  0  0  0  0
   69.1321   52.8989   44.3697 H   0  0  0  0  0  0
   69.2261   54.0797   45.6983 H   0  0  0  0  0  0
   68.2943   54.4632   44.2310 H   0  0  0  0  0  0
   73.4268   57.1812   42.7619 H   0  0  0  0  0  0
   71.8679   58.0300   42.8941 H   0  0  0  0  0  0
   72.7996   57.6465   44.3614 H   0  0  0  0  0  0
  1  2  1  0  0  0
  1  7  2  0  0  0
  1 18  1  0  0  0
  2  3  2  0  0  0
  2 13  1  0  0  0
  3  4  1  0  0  0
  3 10  1  0  0  0
  4  5  1  0  0  0
  4 17  1  0  0  0
  5  6  2  0  0  0
  5  7  1  0  0  0
  7  8  1  0  0  0
  8  9  3  0  0  0
 10 11  1  0  0  0
 10 14  1  0  0  0
 10 22  1  0  0  0
 11 12  1  0  0  0
 11 15  1  0  0  0
 11 16  1  0  0  0
 12 13  1  0  0  0
 12 19  1  0  0  0
 12 20  1  0  0  0
 13 21  1  0  0  0
 22 23  1  0  0  0
 23 24  2  0  0  0
 23 28  1  0  0  0
 24 25  1  0  0  0
 24 30  1  0  0  0
 25 26  1  0  0  0
 25 27  1  0  0  0
 26 31  1  0  0  0
 26 32  1  0  0  0
 26 33  1  0  0  0
 27 28  2  0  0  0
 28 29  1  0  0  0
 29 34  1  0  0  0
 29 35  1  0  0  0
 29 36  1  0  0  0
M  END
> <b_m_subgroup_collapsed>
1

> <s_m_subgroup_title>
enumerate_140-out

> <s_m_subgroupid>
enumerate_140-out

$$$$
