24806-1
                    3D
 Schrodinger Suite 2024-3.
 45 46  0  0  1  0            999 V2000
   76.7152   51.2564   42.5117 C   0  0  0  0  0  0
   75.6469   51.8672   41.7091 C   0  0  0  0  0  0
   74.7156   52.5958   42.3599 C   0  0  0  0  0  0
   74.7624   52.7581   43.7471 N   0  0  0  0  0  0
   75.7023   52.2182   44.5484 C   0  0  0  0  0  0
   75.6665   52.3767   45.7684 O   0  0  0  0  0  0
   76.7303   51.4438   43.8559 C   0  0  0  0  0  0
   77.7066   50.8711   44.7216 C   0  0  0  0  0  0
   78.4723   50.4247   45.4646 N   0  0  0  0  0  0
   73.5301   53.2752   41.6754 C   0  0  2  0  0  0
   73.5536   53.2080   40.1403 C   0  0  0  0  0  0
   74.1629   51.9154   39.6394 C   0  0  0  0  0  0
   75.5862   51.7783   40.1806 N   0  0  0  0  0  0
   72.6664   52.6907   41.9933 H   0  0  0  0  0  0
   72.5491   53.3463   39.7375 H   0  0  0  0  0  0
   74.1721   53.9906   39.7152 H   0  0  0  0  0  0
   74.0228   53.3179   44.1572 H   0  0  0  0  0  0
   78.2659   50.0552   41.5379 R   0  0  0  0  0  0
   73.5564   51.0654   39.9852 H   0  0  0  0  0  0
   74.1880   51.9241   38.5497 H   0  0  0  0  0  0
   76.4340   51.6429   39.6486 H   0  0  0  0  0  0
   76.1000   55.9189   46.5263 C   0  0  0  0  0  0
   74.9053   56.2415   45.9157 O   0  0  0  0  0  0
   74.9760   56.4093   44.5478 C   0  0  0  0  0  0
   73.6169   56.7546   44.0154 C   0  0  0  0  0  0
   73.6938   56.9370   42.5285 C   0  0  0  0  0  0
   72.3347   57.2824   41.9962 C   0  0  0  0  0  0
   74.6523   58.0459   42.2097 C   0  0  0  0  0  0
   74.1714   55.6651   41.8928 C   0  0  0  0  0  0
   75.1892   55.5495   41.2163 O   0  0  0  0  0  0
   73.3511   54.6452   42.1472 N   0  0  0  0  0  0
   75.9416   55.8081   47.5990 H   0  0  0  0  0  0
   76.8258   56.7119   46.3463 H   0  0  0  0  0  0
   76.4764   54.9818   46.1160 H   0  0  0  0  0  0
   75.6725   57.2151   44.3161 H   0  0  0  0  0  0
   75.3231   55.4850   44.0858 H   0  0  0  0  0  0
   72.9204   55.9488   44.2471 H   0  0  0  0  0  0
   73.2698   57.6789   44.4774 H   0  0  0  0  0  0
   71.9876   58.2067   42.4581 H   0  0  0  0  0  0
   72.3906   57.4150   40.9157 H   0  0  0  0  0  0
   71.6382   56.4766   42.2278 H   0  0  0  0  0  0
   74.3052   58.9702   42.6717 H   0  0  0  0  0  0
   75.6400   57.7950   42.5966 H   0  0  0  0  0  0
   74.7082   58.1785   41.1293 H   0  0  0  0  0  0
   72.5056   54.6958   42.6973 H   0  0  0  0  0  0
  1  2  1  0  0  0
  1  7  2  0  0  0
  1 18  1  0  0  0
  2  3  2  0  0  0
  2 13  1  0  0  0
  3  4  1  0  0  0
  3 10  1  0  0  0
  4  5  1  0  0  0
  4 17  1  0  0  0
  5  6  2  0  0  0
  5  7  1  0  0  0
  7  8  1  0  0  0
  8  9  3  0  0  0
 10 11  1  0  0  0
 10 14  1  0  0  0
 10 31  1  0  0  0
 11 12  1  0  0  0
 11 15  1  0  0  0
 11 16  1  0  0  0
 12 13  1  0  0  0
 12 19  1  0  0  0
 12 20  1  0  0  0
 13 21  1  0  0  0
 22 23  1  0  0  0
 22 32  1  0  0  0
 22 33  1  0  0  0
 22 34  1  0  0  0
 23 24  1  0  0  0
 24 25  1  0  0  0
 24 35  1  0  0  0
 24 36  1  0  0  0
 25 26  1  0  0  0
 25 37  1  0  0  0
 25 38  1  0  0  0
 26 27  1  0  0  0
 26 28  1  0  0  0
 26 29  1  0  0  0
 27 39  1  0  0  0
 27 40  1  0  0  0
 27 41  1  0  0  0
 28 42  1  0  0  0
 28 43  1  0  0  0
 28 44  1  0  0  0
 29 30  2  0  0  0
 29 31  1  0  0  0
 31 45  1  0  0  0
M  END
> <b_m_subgroup_collapsed>
1

> <s_m_subgroup_title>
enumerate_140-out

> <s_m_subgroupid>
enumerate_140-out

$$$$
