22950-7
                    3D
 Schrodinger Suite 2024-3.
 44 47  0  0  1  0            999 V2000
   76.7152   51.2564   42.5117 C   0  0  0  0  0  0
   75.6469   51.8672   41.7091 C   0  0  0  0  0  0
   74.7156   52.5958   42.3599 C   0  0  0  0  0  0
   74.7624   52.7581   43.7471 N   0  0  0  0  0  0
   75.7023   52.2182   44.5484 C   0  0  0  0  0  0
   75.6665   52.3767   45.7684 O   0  0  0  0  0  0
   76.7303   51.4438   43.8559 C   0  0  0  0  0  0
   77.7066   50.8711   44.7216 C   0  0  0  0  0  0
   78.4723   50.4247   45.4646 N   0  0  0  0  0  0
   73.5301   53.2752   41.6754 C   0  0  2  0  0  0
   73.5536   53.2080   40.1403 C   0  0  0  0  0  0
   74.1629   51.9154   39.6394 C   0  0  0  0  0  0
   75.5862   51.7783   40.1806 N   0  0  0  0  0  0
   72.6664   52.6907   41.9933 H   0  0  0  0  0  0
   72.5491   53.3463   39.7375 H   0  0  0  0  0  0
   74.1721   53.9906   39.7152 H   0  0  0  0  0  0
   74.0228   53.3179   44.1572 H   0  0  0  0  0  0
   78.2659   50.0552   41.5379 R   0  0  0  0  0  0
   73.5564   51.0654   39.9852 H   0  0  0  0  0  0
   74.1880   51.9241   38.5497 H   0  0  0  0  0  0
   76.4340   51.6429   39.6486 H   0  0  0  0  0  0
   73.3609   54.5702   42.1213 O   0  0  0  0  0  0
   72.1951   55.1818   41.7075 C   0  0  2  0  0  0
   72.5223   56.4536   40.8914 C   0  0  0  0  0  0
   73.0797   57.6029   41.7717 C   0  0  0  0  0  0
   72.2457   57.8453   42.9174 O   0  0  0  0  0  0
   72.0835   56.6780   43.7200 C   0  0  1  0  0  0
   71.1943   56.8466   44.9472 C   0  0  0  0  0  0
   70.6750   55.4181   45.2376 C   0  0  0  0  0  0
   71.0007   54.5659   43.9895 C   0  0  0  0  0  0
   71.3539   55.6022   42.9205 C   0  0  2  0  0  0
   71.6607   54.4536   41.0947 H   0  0  0  0  0  0
   73.2268   56.2207   40.0917 H   0  0  0  0  0  0
   71.6151   56.8051   40.3972 H   0  0  0  0  0  0
   74.0955   57.3707   42.0990 H   0  0  0  0  0  0
   73.1539   58.5205   41.1865 H   0  0  0  0  0  0
   73.0762   56.3413   44.0344 H   0  0  0  0  0  0
   71.7354   57.2784   45.7899 H   0  0  0  0  0  0
   70.3624   57.5132   44.7136 H   0  0  0  0  0  0
   71.1520   54.9940   46.1234 H   0  0  0  0  0  0
   69.6013   55.4364   45.4343 H   0  0  0  0  0  0
   70.1699   53.9238   43.6912 H   0  0  0  0  0  0
   71.8578   53.9190   44.1897 H   0  0  0  0  0  0
   70.4178   56.0264   42.5459 H   0  0  0  0  0  0
  1  2  1  0  0  0
  1  7  2  0  0  0
  1 18  1  0  0  0
  2  3  2  0  0  0
  2 13  1  0  0  0
  3  4  1  0  0  0
  3 10  1  0  0  0
  4  5  1  0  0  0
  4 17  1  0  0  0
  5  6  2  0  0  0
  5  7  1  0  0  0
  7  8  1  0  0  0
  8  9  3  0  0  0
 10 11  1  0  0  0
 10 14  1  0  0  0
 10 22  1  0  0  0
 11 12  1  0  0  0
 11 15  1  0  0  0
 11 16  1  0  0  0
 12 13  1  0  0  0
 12 19  1  0  0  0
 12 20  1  0  0  0
 13 21  1  0  0  0
 22 23  1  0  0  0
 23 24  1  0  0  0
 23 31  1  0  0  0
 23 32  1  0  0  0
 24 25  1  0  0  0
 24 33  1  0  0  0
 24 34  1  0  0  0
 25 26  1  0  0  0
 25 35  1  0  0  0
 25 36  1  0  0  0
 26 27  1  0  0  0
 27 28  1  0  0  0
 27 31  1  0  0  0
 27 37  1  0  0  0
 28 29  1  0  0  0
 28 38  1  0  0  0
 28 39  1  0  0  0
 29 30  1  0  0  0
 29 40  1  0  0  0
 29 41  1  0  0  0
 30 31  1  0  0  0
 30 42  1  0  0  0
 30 43  1  0  0  0
 31 44  1  0  0  0
M  END
> <b_m_subgroup_collapsed>
1

> <s_m_subgroup_title>
enumerate_139-out

> <s_m_subgroupid>
enumerate_139-out

$$$$
