6760-1
                    3D
 Schrodinger Suite 2024-3.
 47 51  0  0  1  0            999 V2000
   76.7152   51.2564   42.5117 C   0  0  0  0  0  0
   75.6469   51.8672   41.7091 C   0  0  0  0  0  0
   74.7156   52.5958   42.3599 C   0  0  0  0  0  0
   74.7624   52.7581   43.7471 N   0  0  0  0  0  0
   75.7023   52.2182   44.5484 C   0  0  0  0  0  0
   75.6665   52.3767   45.7684 O   0  0  0  0  0  0
   76.7303   51.4438   43.8559 C   0  0  0  0  0  0
   77.7066   50.8711   44.7216 C   0  0  0  0  0  0
   78.4723   50.4247   45.4646 N   0  0  0  0  0  0
   73.5301   53.2752   41.6754 C   0  0  2  0  0  0
   73.5536   53.2080   40.1403 C   0  0  0  0  0  0
   74.1629   51.9154   39.6394 C   0  0  0  0  0  0
   75.5862   51.7783   40.1806 N   0  0  0  0  0  0
   72.6664   52.6907   41.9933 H   0  0  0  0  0  0
   72.5491   53.3463   39.7375 H   0  0  0  0  0  0
   74.1721   53.9906   39.7152 H   0  0  0  0  0  0
   74.0228   53.3179   44.1572 H   0  0  0  0  0  0
   78.2659   50.0552   41.5379 R   0  0  0  0  0  0
   73.5564   51.0654   39.9852 H   0  0  0  0  0  0
   74.1880   51.9241   38.5497 H   0  0  0  0  0  0
   76.4340   51.6429   39.6486 H   0  0  0  0  0  0
   73.3609   54.5702   42.1213 O   0  0  0  0  0  0
   72.2348   54.7795   42.8911 C   0  0  0  0  0  0
   72.6544   55.2882   44.2878 C   0  0  0  0  0  0
   71.3936   55.5222   45.1485 C   0  0  1  0  0  0
   70.4922   56.5751   44.4671 C   0  0  0  0  0  0
   70.0741   56.0658   43.0703 C   0  0  2  0  0  0
   69.2959   54.7397   43.2165 C   0  0  0  0  0  0
   70.1979   53.6880   43.8988 C   0  0  2  0  0  0
   70.6160   54.1960   45.2961 C   0  0  0  0  0  0
   71.4581   53.4525   43.0374 C   0  0  0  0  0  0
   71.3339   55.8318   42.2081 C   0  0  0  0  0  0
   73.3131   54.5655   44.7711 H   0  0  0  0  0  0
   73.2269   56.2122   44.1972 H   0  0  0  0  0  0
   71.6892   55.8813   46.1350 H   0  0  0  0  0  0
   71.0204   57.5255   44.3804 H   0  0  0  0  0  0
   69.6099   56.7695   45.0783 H   0  0  0  0  0  0
   69.4375   56.8089   42.5886 H   0  0  0  0  0  0
   68.3888   54.8964   43.8018 H   0  0  0  0  0  0
   68.9716   54.3821   42.2384 H   0  0  0  0  0  0
   69.6489   52.7514   44.0024 H   0  0  0  0  0  0
   71.2323   53.4506   45.8004 H   0  0  0  0  0  0
   69.7360   54.3418   45.9239 H   0  0  0  0  0  0
   71.1784   53.0678   42.0558 H   0  0  0  0  0  0
   72.0920   52.6920   43.4954 H   0  0  0  0  0  0
   71.8793   56.7669   42.0744 H   0  0  0  0  0  0
   71.0513   55.4963   41.2094 H   0  0  0  0  0  0
  1  2  1  0  0  0
  1  7  2  0  0  0
  1 18  1  0  0  0
  2  3  2  0  0  0
  2 13  1  0  0  0
  3  4  1  0  0  0
  3 10  1  0  0  0
  4  5  1  0  0  0
  4 17  1  0  0  0
  5  6  2  0  0  0
  5  7  1  0  0  0
  7  8  1  0  0  0
  8  9  3  0  0  0
 10 11  1  0  0  0
 10 14  1  0  0  0
 10 22  1  0  0  0
 11 12  1  0  0  0
 11 15  1  0  0  0
 11 16  1  0  0  0
 12 13  1  0  0  0
 12 19  1  0  0  0
 12 20  1  0  0  0
 13 21  1  0  0  0
 22 23  1  0  0  0
 23 24  1  0  0  0
 23 31  1  0  0  0
 23 32  1  0  0  0
 24 25  1  0  0  0
 24 33  1  0  0  0
 24 34  1  0  0  0
 25 26  1  0  0  0
 25 30  1  0  0  0
 25 35  1  0  0  0
 26 27  1  0  0  0
 26 36  1  0  0  0
 26 37  1  0  0  0
 27 28  1  0  0  0
 27 32  1  0  0  0
 27 38  1  0  0  0
 28 29  1  0  0  0
 28 39  1  0  0  0
 28 40  1  0  0  0
 29 30  1  0  0  0
 29 31  1  0  0  0
 29 41  1  0  0  0
 30 42  1  0  0  0
 30 43  1  0  0  0
 31 44  1  0  0  0
 31 45  1  0  0  0
 32 46  1  0  0  0
 32 47  1  0  0  0
M  END
> <b_m_subgroup_collapsed>
1

> <s_m_subgroup_title>
enumerate_139-out

> <s_m_subgroupid>
enumerate_139-out

$$$$
