44022-3
                    3D
 Schrodinger Suite 2024-3.
 42 44  0  0  1  0            999 V2000
   76.7152   51.2564   42.5117 C   0  0  0  0  0  0
   75.6469   51.8672   41.7091 C   0  0  0  0  0  0
   74.7156   52.5958   42.3599 C   0  0  0  0  0  0
   74.7624   52.7581   43.7471 N   0  0  0  0  0  0
   75.7023   52.2182   44.5484 C   0  0  0  0  0  0
   75.6665   52.3767   45.7684 O   0  0  0  0  0  0
   76.7303   51.4438   43.8559 C   0  0  0  0  0  0
   77.7066   50.8711   44.7216 C   0  0  0  0  0  0
   78.4723   50.4247   45.4646 N   0  0  0  0  0  0
   73.5301   53.2752   41.6754 C   0  0  2  0  0  0
   73.5536   53.2080   40.1403 C   0  0  0  0  0  0
   74.1629   51.9154   39.6394 C   0  0  0  0  0  0
   75.5862   51.7783   40.1806 N   0  0  0  0  0  0
   72.6664   52.6907   41.9933 H   0  0  0  0  0  0
   72.5491   53.3463   39.7375 H   0  0  0  0  0  0
   74.1721   53.9906   39.7152 H   0  0  0  0  0  0
   74.0228   53.3179   44.1572 H   0  0  0  0  0  0
   78.2659   50.0552   41.5379 R   0  0  0  0  0  0
   73.5564   51.0654   39.9852 H   0  0  0  0  0  0
   74.1880   51.9241   38.5497 H   0  0  0  0  0  0
   76.4340   51.6429   39.6486 H   0  0  0  0  0  0
   68.3549   54.6588   42.1148 C   0  0  0  0  0  0
   69.5738   54.8222   42.9736 C   0  0  0  0  0  0
   70.8037   54.6097   42.1417 C   0  0  2  0  0  0
   72.0668   54.7740   43.0087 C   0  0  0  0  0  0
   73.3462   54.6828   42.1601 C   0  0  2  0  0  0
   73.2470   55.6349   40.9563 C   0  0  0  0  0  0
   71.9291   55.4307   40.1846 C   0  0  0  0  0  0
   70.8177   55.5640   41.0757 O   0  0  0  0  0  0
   67.4611   54.8132   42.7193 H   0  0  0  0  0  0
   68.3784   55.3908   41.3075 H   0  0  0  0  0  0
   68.3393   53.6537   41.6935 H   0  0  0  0  0  0
   69.5502   54.0902   43.7809 H   0  0  0  0  0  0
   69.5893   55.8274   43.3949 H   0  0  0  0  0  0
   70.7347   53.5960   41.7411 H   0  0  0  0  0  0
   72.0795   54.0206   43.7977 H   0  0  0  0  0  0
   72.0288   55.7413   43.5124 H   0  0  0  0  0  0
   74.2260   54.9149   42.7634 H   0  0  0  0  0  0
   73.3004   56.6689   41.3010 H   0  0  0  0  0  0
   74.0976   55.4928   40.2881 H   0  0  0  0  0  0
   71.8396   56.1725   39.3897 H   0  0  0  0  0  0
   71.9092   54.4527   39.6987 H   0  0  0  0  0  0
  1  2  1  0  0  0
  1  7  2  0  0  0
  1 18  1  0  0  0
  2  3  2  0  0  0
  2 13  1  0  0  0
  3  4  1  0  0  0
  3 10  1  0  0  0
  4  5  1  0  0  0
  4 17  1  0  0  0
  5  6  2  0  0  0
  5  7  1  0  0  0
  7  8  1  0  0  0
  8  9  3  0  0  0
 10 11  1  0  0  0
 10 14  1  0  0  0
 10 26  1  0  0  0
 11 12  1  0  0  0
 11 15  1  0  0  0
 11 16  1  0  0  0
 12 13  1  0  0  0
 12 19  1  0  0  0
 12 20  1  0  0  0
 13 21  1  0  0  0
 22 23  1  0  0  0
 22 30  1  0  0  0
 22 31  1  0  0  0
 22 32  1  0  0  0
 23 24  1  0  0  0
 23 33  1  0  0  0
 23 34  1  0  0  0
 24 25  1  0  0  0
 24 29  1  0  0  0
 24 35  1  0  0  0
 25 26  1  0  0  0
 25 36  1  0  0  0
 25 37  1  0  0  0
 26 27  1  0  0  0
 26 38  1  0  0  0
 27 28  1  0  0  0
 27 39  1  0  0  0
 27 40  1  0  0  0
 28 29  1  0  0  0
 28 41  1  0  0  0
 28 42  1  0  0  0
M  END
> <b_m_subgroup_collapsed>
1

> <s_m_subgroup_title>
enumerate_140-out

> <s_m_subgroupid>
enumerate_140-out

$$$$
