4556-1
                    3D
 Schrodinger Suite 2024-3.
 38 39  0  0  1  0            999 V2000
   76.7152   51.2564   42.5117 C   0  0  0  0  0  0
   75.6469   51.8672   41.7091 C   0  0  0  0  0  0
   74.7156   52.5958   42.3599 C   0  0  0  0  0  0
   74.7624   52.7581   43.7471 N   0  0  0  0  0  0
   75.7023   52.2182   44.5484 C   0  0  0  0  0  0
   75.6665   52.3767   45.7684 O   0  0  0  0  0  0
   76.7303   51.4438   43.8559 C   0  0  0  0  0  0
   77.7066   50.8711   44.7216 C   0  0  0  0  0  0
   78.4723   50.4247   45.4646 N   0  0  0  0  0  0
   73.5301   53.2752   41.6754 C   0  0  2  0  0  0
   73.5536   53.2080   40.1403 C   0  0  0  0  0  0
   74.1629   51.9154   39.6394 C   0  0  0  0  0  0
   75.5862   51.7783   40.1806 N   0  0  0  0  0  0
   72.6664   52.6907   41.9933 H   0  0  0  0  0  0
   72.5491   53.3463   39.7375 H   0  0  0  0  0  0
   74.1721   53.9906   39.7152 H   0  0  0  0  0  0
   74.0228   53.3179   44.1572 H   0  0  0  0  0  0
   78.2659   50.0552   41.5379 R   0  0  0  0  0  0
   73.5564   51.0654   39.9852 H   0  0  0  0  0  0
   74.1880   51.9241   38.5497 H   0  0  0  0  0  0
   76.4340   51.6429   39.6486 H   0  0  0  0  0  0
   72.2746   57.4352   40.5433 C   0  0  0  0  0  0
   71.6691   57.5821   41.9077 C   0  0  0  0  0  0
   72.3523   56.6472   42.8612 C   0  0  1  0  0  0
   71.7468   56.7941   44.2257 C   0  0  0  0  0  0
   72.1794   55.2347   42.3869 C   0  0  0  0  0  0
   71.1027   54.6666   42.2298 O   0  0  0  0  0  0
   73.3511   54.6452   42.1472 N   0  0  0  0  0  0
   71.7781   58.1145   39.8504 H   0  0  0  0  0  0
   72.1489   56.4088   40.1986 H   0  0  0  0  0  0
   73.3368   57.6755   40.5893 H   0  0  0  0  0  0
   71.7947   58.6085   42.2525 H   0  0  0  0  0  0
   70.6069   57.3417   41.8617 H   0  0  0  0  0  0
   73.4145   56.8875   42.9073 H   0  0  0  0  0  0
   72.2433   56.1147   44.9186 H   0  0  0  0  0  0
   71.8725   57.8204   44.5704 H   0  0  0  0  0  0
   70.6847   56.5537   44.1796 H   0  0  0  0  0  0
   74.2581   55.0744   42.2626 H   0  0  0  0  0  0
  1  2  1  0  0  0
  1  7  2  0  0  0
  1 18  1  0  0  0
  2  3  2  0  0  0
  2 13  1  0  0  0
  3  4  1  0  0  0
  3 10  1  0  0  0
  4  5  1  0  0  0
  4 17  1  0  0  0
  5  6  2  0  0  0
  5  7  1  0  0  0
  7  8  1  0  0  0
  8  9  3  0  0  0
 10 11  1  0  0  0
 10 14  1  0  0  0
 10 28  1  0  0  0
 11 12  1  0  0  0
 11 15  1  0  0  0
 11 16  1  0  0  0
 12 13  1  0  0  0
 12 19  1  0  0  0
 12 20  1  0  0  0
 13 21  1  0  0  0
 22 23  1  0  0  0
 22 29  1  0  0  0
 22 30  1  0  0  0
 22 31  1  0  0  0
 23 24  1  0  0  0
 23 32  1  0  0  0
 23 33  1  0  0  0
 24 25  1  0  0  0
 24 26  1  0  0  0
 24 34  1  0  0  0
 25 35  1  0  0  0
 25 36  1  0  0  0
 25 37  1  0  0  0
 26 27  2  0  0  0
 26 28  1  0  0  0
 28 38  1  0  0  0
M  END
> <b_m_subgroup_collapsed>
1

> <s_m_subgroup_title>
enumerate_139-out

> <s_m_subgroupid>
enumerate_139-out

$$$$
