2315-1
                    3D
 Schrodinger Suite 2024-3.
 42 44  0  0  1  0            999 V2000
   76.7152   51.2564   42.5117 C   0  0  0  0  0  0
   75.6469   51.8672   41.7091 C   0  0  0  0  0  0
   74.7156   52.5958   42.3599 C   0  0  0  0  0  0
   74.7624   52.7581   43.7471 N   0  0  0  0  0  0
   75.7023   52.2182   44.5484 C   0  0  0  0  0  0
   75.6665   52.3767   45.7684 O   0  0  0  0  0  0
   76.7303   51.4438   43.8559 C   0  0  0  0  0  0
   77.7066   50.8711   44.7216 C   0  0  0  0  0  0
   78.4723   50.4247   45.4646 N   0  0  0  0  0  0
   73.5301   53.2752   41.6754 C   0  0  2  0  0  0
   73.5536   53.2080   40.1403 C   0  0  0  0  0  0
   74.1629   51.9154   39.6394 C   0  0  0  0  0  0
   75.5862   51.7783   40.1806 N   0  0  0  0  0  0
   72.6664   52.6907   41.9933 H   0  0  0  0  0  0
   72.5491   53.3463   39.7375 H   0  0  0  0  0  0
   74.1721   53.9906   39.7152 H   0  0  0  0  0  0
   74.0228   53.3179   44.1572 H   0  0  0  0  0  0
   78.2659   50.0552   41.5379 R   0  0  0  0  0  0
   73.5564   51.0654   39.9852 H   0  0  0  0  0  0
   74.1880   51.9241   38.5497 H   0  0  0  0  0  0
   76.4340   51.6429   39.6486 H   0  0  0  0  0  0
   75.6628   54.8913   42.2502 C   0  0  0  0  0  0
   74.4600   54.9719   42.9218 O   0  0  0  0  0  0
   73.3462   54.6828   42.1601 C   0  0  0  0  0  0
   73.2803   55.6500   40.9609 C   0  0  0  0  0  0
   73.0036   57.0991   41.4097 C   0  0  0  0  0  0
   71.7416   57.1938   42.2907 C   0  0  0  0  0  0
   71.8074   56.2265   43.4898 C   0  0  0  0  0  0
   72.0842   54.7774   43.0411 C   0  0  0  0  0  0
   76.4770   55.1356   42.9325 H   0  0  0  0  0  0
   75.7993   53.8791   41.8694 H   0  0  0  0  0  0
   75.6623   55.5955   41.4182 H   0  0  0  0  0  0
   74.2114   55.6057   40.3934 H   0  0  0  0  0  0
   72.4943   55.3259   40.2761 H   0  0  0  0  0  0
   73.8635   57.4771   41.9659 H   0  0  0  0  0  0
   72.9003   57.7472   40.5377 H   0  0  0  0  0  0
   71.6078   58.2178   42.6433 H   0  0  0  0  0  0
   70.8604   56.9651   41.6880 H   0  0  0  0  0  0
   72.5935   56.5507   44.1746 H   0  0  0  0  0  0
   70.8764   56.2708   44.0574 H   0  0  0  0  0  0
   71.2242   54.3994   42.4848 H   0  0  0  0  0  0
   72.1875   54.1293   43.9130 H   0  0  0  0  0  0
  1  2  1  0  0  0
  1  7  2  0  0  0
  1 18  1  0  0  0
  2  3  2  0  0  0
  2 13  1  0  0  0
  3  4  1  0  0  0
  3 10  1  0  0  0
  4  5  1  0  0  0
  4 17  1  0  0  0
  5  6  2  0  0  0
  5  7  1  0  0  0
  7  8  1  0  0  0
  8  9  3  0  0  0
 10 11  1  0  0  0
 10 14  1  0  0  0
 10 24  1  0  0  0
 11 12  1  0  0  0
 11 15  1  0  0  0
 11 16  1  0  0  0
 12 13  1  0  0  0
 12 19  1  0  0  0
 12 20  1  0  0  0
 13 21  1  0  0  0
 22 23  1  0  0  0
 22 30  1  0  0  0
 22 31  1  0  0  0
 22 32  1  0  0  0
 23 24  1  0  0  0
 24 25  1  0  0  0
 24 29  1  0  0  0
 25 26  1  0  0  0
 25 33  1  0  0  0
 25 34  1  0  0  0
 26 27  1  0  0  0
 26 35  1  0  0  0
 26 36  1  0  0  0
 27 28  1  0  0  0
 27 37  1  0  0  0
 27 38  1  0  0  0
 28 29  1  0  0  0
 28 39  1  0  0  0
 28 40  1  0  0  0
 29 41  1  0  0  0
 29 42  1  0  0  0
M  END
> <b_m_subgroup_collapsed>
1

> <s_m_subgroup_title>
enumerate_139-out

> <s_m_subgroupid>
enumerate_139-out

$$$$
