15567-1
                    3D
 Schrodinger Suite 2024-3.
 44 46  0  0  1  0            999 V2000
   76.7152   51.2564   42.5117 C   0  0  0  0  0  0
   75.6469   51.8672   41.7091 C   0  0  0  0  0  0
   74.7156   52.5958   42.3599 C   0  0  0  0  0  0
   74.7624   52.7581   43.7471 N   0  0  0  0  0  0
   75.7023   52.2182   44.5484 C   0  0  0  0  0  0
   75.6665   52.3767   45.7684 O   0  0  0  0  0  0
   76.7303   51.4438   43.8559 C   0  0  0  0  0  0
   77.7066   50.8711   44.7216 C   0  0  0  0  0  0
   78.4723   50.4247   45.4646 N   0  0  0  0  0  0
   73.5301   53.2752   41.6754 C   0  0  2  0  0  0
   73.5536   53.2080   40.1403 C   0  0  0  0  0  0
   74.1629   51.9154   39.6394 C   0  0  0  0  0  0
   75.5862   51.7783   40.1806 N   0  0  0  0  0  0
   72.6664   52.6907   41.9933 H   0  0  0  0  0  0
   72.5491   53.3463   39.7375 H   0  0  0  0  0  0
   74.1721   53.9906   39.7152 H   0  0  0  0  0  0
   74.0228   53.3179   44.1572 H   0  0  0  0  0  0
   78.2659   50.0552   41.5379 R   0  0  0  0  0  0
   73.5564   51.0654   39.9852 H   0  0  0  0  0  0
   74.1880   51.9241   38.5497 H   0  0  0  0  0  0
   76.4340   51.6429   39.6486 H   0  0  0  0  0  0
   73.3462   54.6828   42.1601 C   0  0  0  0  0  0
   74.2534   55.4744   42.3988 O   0  0  0  0  0  0
   72.0576   54.9917   42.3083 N   0  0  0  0  0  0
   71.5414   56.2794   42.7634 C   0  0  2  0  0  0
   70.7425   56.0828   44.0176 C   0  0  0  0  0  0
   70.6647   56.8708   41.6996 C   0  0  0  0  0  0
   71.4637   57.0674   40.4454 C   0  0  0  0  0  0
   72.1425   58.2632   40.2176 C   0  0  0  0  0  0
   72.8791   58.4234   39.0442 C   0  0  0  0  0  0
   72.9167   57.3768   38.1254 C   0  0  0  0  0  0
   72.2132   56.2098   38.4201 C   0  0  0  0  0  0
   71.4920   56.0405   39.5590 N   0  0  0  0  0  0
   72.3737   56.9538   42.9648 H   0  0  0  0  0  0
   70.3571   57.0441   44.3573 H   0  0  0  0  0  0
   69.9102   55.4083   43.8162 H   0  0  0  0  0  0
   71.3796   55.6530   44.7906 H   0  0  0  0  0  0
   69.8325   56.1963   41.4983 H   0  0  0  0  0  0
   70.2793   57.8321   42.0394 H   0  0  0  0  0  0
   72.0974   59.0606   40.9469 H   0  0  0  0  0  0
   73.4122   59.3445   38.8507 H   0  0  0  0  0  0
   73.4776   57.4661   37.2051 H   0  0  0  0  0  0
   72.2250   55.3799   37.7235 H   0  0  0  0  0  0
   71.2811   54.3728   42.1240 H   0  0  0  0  0  0
  1  2  1  0  0  0
  1  7  2  0  0  0
  1 18  1  0  0  0
  2  3  2  0  0  0
  2 13  1  0  0  0
  3  4  1  0  0  0
  3 10  1  0  0  0
  4  5  1  0  0  0
  4 17  1  0  0  0
  5  6  2  0  0  0
  5  7  1  0  0  0
  7  8  1  0  0  0
  8  9  3  0  0  0
 10 11  1  0  0  0
 10 14  1  0  0  0
 10 22  1  0  0  0
 11 12  1  0  0  0
 11 15  1  0  0  0
 11 16  1  0  0  0
 12 13  1  0  0  0
 12 19  1  0  0  0
 12 20  1  0  0  0
 13 21  1  0  0  0
 22 23  2  0  0  0
 22 24  1  0  0  0
 24 25  1  0  0  0
 24 44  1  0  0  0
 25 26  1  0  0  0
 25 27  1  0  0  0
 25 34  1  0  0  0
 26 35  1  0  0  0
 26 36  1  0  0  0
 26 37  1  0  0  0
 27 28  1  0  0  0
 27 38  1  0  0  0
 27 39  1  0  0  0
 28 29  2  0  0  0
 28 33  1  0  0  0
 29 30  1  0  0  0
 29 40  1  0  0  0
 30 31  2  0  0  0
 30 41  1  0  0  0
 31 32  1  0  0  0
 31 42  1  0  0  0
 32 33  2  0  0  0
 32 43  1  0  0  0
M  END
> <b_m_subgroup_collapsed>
1

> <s_m_subgroup_title>
enumerate_140-out

> <s_m_subgroupid>
enumerate_140-out

$$$$
