10387-2
                    3D
 Schrodinger Suite 2024-3.
 43 46  0  0  1  0            999 V2000
   76.7152   51.2564   42.5117 C   0  0  0  0  0  0
   75.6469   51.8672   41.7091 C   0  0  0  0  0  0
   74.7156   52.5958   42.3599 C   0  0  0  0  0  0
   74.7624   52.7581   43.7471 N   0  0  0  0  0  0
   75.7023   52.2182   44.5484 C   0  0  0  0  0  0
   75.6665   52.3767   45.7684 O   0  0  0  0  0  0
   76.7303   51.4438   43.8559 C   0  0  0  0  0  0
   77.7066   50.8711   44.7216 C   0  0  0  0  0  0
   78.4723   50.4247   45.4646 N   0  0  0  0  0  0
   73.5301   53.2752   41.6754 C   0  0  2  0  0  0
   73.5536   53.2080   40.1403 C   0  0  0  0  0  0
   74.1629   51.9154   39.6394 C   0  0  0  0  0  0
   75.5862   51.7783   40.1806 N   0  0  0  0  0  0
   72.6664   52.6907   41.9933 H   0  0  0  0  0  0
   72.5491   53.3463   39.7375 H   0  0  0  0  0  0
   74.1721   53.9906   39.7152 H   0  0  0  0  0  0
   74.0228   53.3179   44.1572 H   0  0  0  0  0  0
   78.2659   50.0552   41.5379 R   0  0  0  0  0  0
   73.5564   51.0654   39.9852 H   0  0  0  0  0  0
   74.1880   51.9241   38.5497 H   0  0  0  0  0  0
   76.4340   51.6429   39.6486 H   0  0  0  0  0  0
   73.3462   54.6828   42.1601 C   0  0  0  0  0  0
   74.2392   55.6418   41.8436 C   0  0  0  0  0  0
   74.0166   57.0687   42.3579 C   0  0  0  0  0  0
   72.6966   57.1052   43.2056 C   0  0  2  0  0  0
   72.6199   55.9340   44.2204 C   0  0  0  0  0  0
   72.1386   55.0685   43.0277 C   0  0  1  0  0  0
   71.5220   56.3859   42.4913 C   0  0  0  0  0  0
   70.1667   56.7065   43.0484 C   0  0  0  0  0  0
   71.4616   56.5356   41.0000 C   0  0  0  0  0  0
   75.1003   55.4005   41.2338 H   0  0  0  0  0  0
   74.8692   57.3839   42.9614 H   0  0  0  0  0  0
   73.9523   57.7613   41.5173 H   0  0  0  0  0  0
   72.5045   58.1091   43.5899 H   0  0  0  0  0  0
   73.5616   55.6373   44.6871 H   0  0  0  0  0  0
   71.8756   56.0674   45.0101 H   0  0  0  0  0  0
   71.4652   54.2346   43.2373 H   0  0  0  0  0  0
   69.4060   56.1609   42.4900 H   0  0  0  0  0  0
   70.1268   56.4142   44.0977 H   0  0  0  0  0  0
   69.9825   57.7773   42.9623 H   0  0  0  0  0  0
   70.6001   55.9902   40.6147 H   0  0  0  0  0  0
   71.3675   57.5910   40.7443 H   0  0  0  0  0  0
   72.3732   56.1344   40.5573 H   0  0  0  0  0  0
  1  2  1  0  0  0
  1  7  2  0  0  0
  1 18  1  0  0  0
  2  3  2  0  0  0
  2 13  1  0  0  0
  3  4  1  0  0  0
  3 10  1  0  0  0
  4  5  1  0  0  0
  4 17  1  0  0  0
  5  6  2  0  0  0
  5  7  1  0  0  0
  7  8  1  0  0  0
  8  9  3  0  0  0
 10 11  1  0  0  0
 10 14  1  0  0  0
 10 22  1  0  0  0
 11 12  1  0  0  0
 11 15  1  0  0  0
 11 16  1  0  0  0
 12 13  1  0  0  0
 12 19  1  0  0  0
 12 20  1  0  0  0
 13 21  1  0  0  0
 22 23  2  0  0  0
 22 27  1  0  0  0
 23 24  1  0  0  0
 23 31  1  0  0  0
 24 25  1  0  0  0
 24 32  1  0  0  0
 24 33  1  0  0  0
 25 26  1  0  0  0
 25 28  1  0  0  0
 25 34  1  0  0  0
 26 27  1  0  0  0
 26 35  1  0  0  0
 26 36  1  0  0  0
 27 28  1  0  0  0
 27 37  1  0  0  0
 28 29  1  0  0  0
 28 30  1  0  0  0
 29 38  1  0  0  0
 29 39  1  0  0  0
 29 40  1  0  0  0
 30 41  1  0  0  0
 30 42  1  0  0  0
 30 43  1  0  0  0
M  END
> <b_m_subgroup_collapsed>
1

> <s_m_subgroup_title>
enumerate_139-out

> <s_m_subgroupid>
enumerate_139-out

$$$$
