17269-1
                    3D
 Schrodinger Suite 2024-3.
 35 37  0  0  1  0            999 V2000
   76.7152   51.2564   42.5117 C   0  0  0  0  0  0
   75.6469   51.8672   41.7091 C   0  0  0  0  0  0
   74.7156   52.5958   42.3599 C   0  0  0  0  0  0
   74.7624   52.7581   43.7471 N   0  0  0  0  0  0
   75.7023   52.2182   44.5484 C   0  0  0  0  0  0
   75.6665   52.3767   45.7684 O   0  0  0  0  0  0
   76.7303   51.4438   43.8559 C   0  0  0  0  0  0
   77.7066   50.8711   44.7216 C   0  0  0  0  0  0
   78.4723   50.4247   45.4646 N   0  0  0  0  0  0
   73.5301   53.2752   41.6754 C   0  0  2  0  0  0
   73.5536   53.2080   40.1403 C   0  0  0  0  0  0
   74.1629   51.9154   39.6394 C   0  0  0  0  0  0
   75.5862   51.7783   40.1806 N   0  0  0  0  0  0
   72.6664   52.6907   41.9933 H   0  0  0  0  0  0
   72.5491   53.3463   39.7375 H   0  0  0  0  0  0
   74.1721   53.9906   39.7152 H   0  0  0  0  0  0
   74.0228   53.3179   44.1572 H   0  0  0  0  0  0
   78.2659   50.0552   41.5379 R   0  0  0  0  0  0
   73.5564   51.0654   39.9852 H   0  0  0  0  0  0
   74.1880   51.9241   38.5497 H   0  0  0  0  0  0
   76.4340   51.6429   39.6486 H   0  0  0  0  0  0
   73.3511   54.6452   42.1472 N   0  0  0  0  0  0
   72.1758   54.9399   42.9705 C   0  0  0  0  0  0
   72.0260   56.2739   42.2634 C   0  0  0  0  0  0
   70.6313   56.6413   41.8515 C   0  0  0  0  0  0
   69.8702   56.9530   42.9010 N   0  0  0  0  0  0
   70.2151   56.6609   40.6969 O   0  0  0  0  0  0
   72.8898   55.6483   41.1843 C   0  0  0  0  0  0
   71.3433   54.2509   42.7988 H   0  0  0  0  0  0
   72.3717   54.9952   44.0443 H   0  0  0  0  0  0
   72.4931   57.1128   42.7828 H   0  0  0  0  0  0
   70.1711   56.9501   43.8652 H   0  0  0  0  0  0
   73.6767   56.2898   40.7797 H   0  0  0  0  0  0
   72.3210   55.2208   40.3530 H   0  0  0  0  0  0
   68.8998   57.2301   42.8602 H   0  0  0  0  0  0
  1  2  1  0  0  0
  1  7  2  0  0  0
  1 18  1  0  0  0
  2  3  2  0  0  0
  2 13  1  0  0  0
  3  4  1  0  0  0
  3 10  1  0  0  0
  4  5  1  0  0  0
  4 17  1  0  0  0
  5  6  2  0  0  0
  5  7  1  0  0  0
  7  8  1  0  0  0
  8  9  3  0  0  0
 10 11  1  0  0  0
 10 14  1  0  0  0
 10 22  1  0  0  0
 11 12  1  0  0  0
 11 15  1  0  0  0
 11 16  1  0  0  0
 12 13  1  0  0  0
 12 19  1  0  0  0
 12 20  1  0  0  0
 13 21  1  0  0  0
 22 23  1  0  0  0
 22 28  1  0  0  0
 23 24  1  0  0  0
 23 29  1  0  0  0
 23 30  1  0  0  0
 24 25  1  0  0  0
 24 28  1  0  0  0
 24 31  1  0  0  0
 25 26  1  0  0  0
 25 27  2  0  0  0
 26 32  1  0  0  0
 26 35  1  0  0  0
 28 33  1  0  0  0
 28 34  1  0  0  0
M  END
> <b_m_subgroup_collapsed>
1

> <s_m_subgroup_title>
enumerate_140-out

> <s_m_subgroupid>
enumerate_140-out

$$$$
