43922-3
                    3D
 Schrodinger Suite 2024-3.
 41 44  0  0  1  0            999 V2000
   76.7152   51.2564   42.5117 C   0  0  0  0  0  0
   75.6469   51.8672   41.7091 C   0  0  0  0  0  0
   74.7156   52.5958   42.3599 C   0  0  0  0  0  0
   74.7624   52.7581   43.7471 N   0  0  0  0  0  0
   75.7023   52.2182   44.5484 C   0  0  0  0  0  0
   75.6665   52.3767   45.7684 O   0  0  0  0  0  0
   76.7303   51.4438   43.8559 C   0  0  0  0  0  0
   77.7066   50.8711   44.7216 C   0  0  0  0  0  0
   78.4723   50.4247   45.4646 N   0  0  0  0  0  0
   73.5301   53.2752   41.6754 C   0  0  2  0  0  0
   73.5536   53.2080   40.1403 C   0  0  0  0  0  0
   74.1629   51.9154   39.6394 C   0  0  0  0  0  0
   75.5862   51.7783   40.1806 N   0  0  0  0  0  0
   72.6664   52.6907   41.9933 H   0  0  0  0  0  0
   72.5491   53.3463   39.7375 H   0  0  0  0  0  0
   74.1721   53.9906   39.7152 H   0  0  0  0  0  0
   74.0228   53.3179   44.1572 H   0  0  0  0  0  0
   78.2659   50.0552   41.5379 R   0  0  0  0  0  0
   73.5564   51.0654   39.9852 H   0  0  0  0  0  0
   74.1880   51.9241   38.5497 H   0  0  0  0  0  0
   76.4340   51.6429   39.6486 H   0  0  0  0  0  0
   73.3609   54.5702   42.1213 O   0  0  0  0  0  0
   72.1951   55.1818   41.7075 C   0  0  2  0  0  0
   72.4543   56.4462   40.8836 C   0  0  0  0  0  0
   71.1577   57.2504   41.0263 C   0  0  0  0  0  0
   70.6871   56.9922   42.4605 C   0  0  2  0  0  0
   71.2760   57.9079   43.3861 O   0  0  0  0  0  0
   71.3936   57.2399   44.6373 C   0  0  0  0  0  0
   72.0355   55.9418   44.1694 C   0  0  0  0  0  0
   71.2928   55.6390   42.8709 C   0  0  2  0  0  0
   71.6590   54.4545   41.0941 H   0  0  0  0  0  0
   73.2872   57.0056   41.3154 H   0  0  0  0  0  0
   72.7094   56.2308   39.8444 H   0  0  0  0  0  0
   71.2969   58.3119   40.8185 H   0  0  0  0  0  0
   70.4090   56.8776   40.3254 H   0  0  0  0  0  0
   69.5981   57.0050   42.5510 H   0  0  0  0  0  0
   72.0206   57.7909   45.3400 H   0  0  0  0  0  0
   70.4155   57.0798   45.0980 H   0  0  0  0  0  0
   71.9465   55.1447   44.9090 H   0  0  0  0  0  0
   73.0997   56.1116   43.9932 H   0  0  0  0  0  0
   70.4960   54.9133   43.0496 H   0  0  0  0  0  0
  1  2  1  0  0  0
  1  7  2  0  0  0
  1 18  1  0  0  0
  2  3  2  0  0  0
  2 13  1  0  0  0
  3  4  1  0  0  0
  3 10  1  0  0  0
  4  5  1  0  0  0
  4 17  1  0  0  0
  5  6  2  0  0  0
  5  7  1  0  0  0
  7  8  1  0  0  0
  8  9  3  0  0  0
 10 11  1  0  0  0
 10 14  1  0  0  0
 10 22  1  0  0  0
 11 12  1  0  0  0
 11 15  1  0  0  0
 11 16  1  0  0  0
 12 13  1  0  0  0
 12 19  1  0  0  0
 12 20  1  0  0  0
 13 21  1  0  0  0
 22 23  1  0  0  0
 23 24  1  0  0  0
 23 30  1  0  0  0
 23 31  1  0  0  0
 24 25  1  0  0  0
 24 32  1  0  0  0
 24 33  1  0  0  0
 25 26  1  0  0  0
 25 34  1  0  0  0
 25 35  1  0  0  0
 26 27  1  0  0  0
 26 30  1  0  0  0
 26 36  1  0  0  0
 27 28  1  0  0  0
 28 29  1  0  0  0
 28 37  1  0  0  0
 28 38  1  0  0  0
 29 30  1  0  0  0
 29 39  1  0  0  0
 29 40  1  0  0  0
 30 41  1  0  0  0
M  END
> <b_m_subgroup_collapsed>
1

> <s_m_subgroup_title>
enumerate_139-out

> <s_m_subgroupid>
enumerate_139-out

$$$$
