13216-2
                    3D
 Schrodinger Suite 2024-3.
 41 42  0  0  1  0            999 V2000
   76.7152   51.2564   42.5117 C   0  0  0  0  0  0
   75.6469   51.8672   41.7091 C   0  0  0  0  0  0
   74.7156   52.5958   42.3599 C   0  0  0  0  0  0
   74.7624   52.7581   43.7471 N   0  0  0  0  0  0
   75.7023   52.2182   44.5484 C   0  0  0  0  0  0
   75.6665   52.3767   45.7684 O   0  0  0  0  0  0
   76.7303   51.4438   43.8559 C   0  0  0  0  0  0
   77.7066   50.8711   44.7216 C   0  0  0  0  0  0
   78.4723   50.4247   45.4646 N   0  0  0  0  0  0
   73.5301   53.2752   41.6754 C   0  0  2  0  0  0
   73.5536   53.2080   40.1403 C   0  0  0  0  0  0
   74.1629   51.9154   39.6394 C   0  0  0  0  0  0
   75.5862   51.7783   40.1806 N   0  0  0  0  0  0
   72.6664   52.6907   41.9933 H   0  0  0  0  0  0
   72.5491   53.3463   39.7375 H   0  0  0  0  0  0
   74.1721   53.9906   39.7152 H   0  0  0  0  0  0
   74.0228   53.3179   44.1572 H   0  0  0  0  0  0
   78.2659   50.0552   41.5379 R   0  0  0  0  0  0
   73.5564   51.0654   39.9852 H   0  0  0  0  0  0
   74.1880   51.9241   38.5497 H   0  0  0  0  0  0
   76.4340   51.6429   39.6486 H   0  0  0  0  0  0
   72.7660   59.3462   40.7760 C   0  0  0  0  0  0
   72.9499   57.9386   40.2913 C   0  0  0  0  0  0
   73.0561   57.0145   41.4680 C   0  0  0  0  0  0
   73.2400   55.6069   40.9834 C   0  0  0  0  0  0
   73.3462   54.6828   42.1601 C   0  0  1  0  0  0
   72.0924   54.7698   42.9790 C   0  0  0  0  0  0
   74.4281   55.0474   42.9352 O   0  0  0  0  0  0
   72.6888   60.0178   39.9209 H   0  0  0  0  0  0
   71.8549   59.4095   41.3711 H   0  0  0  0  0  0
   73.6206   59.6342   41.3882 H   0  0  0  0  0  0
   73.8609   57.8754   39.6963 H   0  0  0  0  0  0
   72.0953   57.6506   39.6791 H   0  0  0  0  0  0
   72.1450   57.0777   42.0631 H   0  0  0  0  0  0
   73.9107   57.3025   42.0803 H   0  0  0  0  0  0
   74.1510   55.5437   40.3883 H   0  0  0  0  0  0
   72.3854   55.3189   40.3711 H   0  0  0  0  0  0
   71.2379   54.4818   42.3667 H   0  0  0  0  0  0
   72.1696   54.0983   43.8340 H   0  0  0  0  0  0
   71.9588   55.7927   43.3312 H   0  0  0  0  0  0
   74.3904   55.9765   43.3032 H   0  0  0  0  0  0
  1  2  1  0  0  0
  1  7  2  0  0  0
  1 18  1  0  0  0
  2  3  2  0  0  0
  2 13  1  0  0  0
  3  4  1  0  0  0
  3 10  1  0  0  0
  4  5  1  0  0  0
  4 17  1  0  0  0
  5  6  2  0  0  0
  5  7  1  0  0  0
  7  8  1  0  0  0
  8  9  3  0  0  0
 10 11  1  0  0  0
 10 14  1  0  0  0
 10 26  1  0  0  0
 11 12  1  0  0  0
 11 15  1  0  0  0
 11 16  1  0  0  0
 12 13  1  0  0  0
 12 19  1  0  0  0
 12 20  1  0  0  0
 13 21  1  0  0  0
 22 23  1  0  0  0
 22 29  1  0  0  0
 22 30  1  0  0  0
 22 31  1  0  0  0
 23 24  1  0  0  0
 23 32  1  0  0  0
 23 33  1  0  0  0
 24 25  1  0  0  0
 24 34  1  0  0  0
 24 35  1  0  0  0
 25 26  1  0  0  0
 25 36  1  0  0  0
 25 37  1  0  0  0
 26 27  1  0  0  0
 26 28  1  0  0  0
 27 38  1  0  0  0
 27 39  1  0  0  0
 27 40  1  0  0  0
 28 41  1  0  0  0
M  END
> <b_m_subgroup_collapsed>
1

> <s_m_subgroup_title>
enumerate_140-out

> <s_m_subgroupid>
enumerate_140-out

$$$$
