35211-2
                    3D
 Schrodinger Suite 2024-3.
 37 39  0  0  1  0            999 V2000
   76.7152   51.2564   42.5117 C   0  0  0  0  0  0
   75.6469   51.8672   41.7091 C   0  0  0  0  0  0
   74.7156   52.5958   42.3599 C   0  0  0  0  0  0
   74.7624   52.7581   43.7471 N   0  0  0  0  0  0
   75.7023   52.2182   44.5484 C   0  0  0  0  0  0
   75.6665   52.3767   45.7684 O   0  0  0  0  0  0
   76.7303   51.4438   43.8559 C   0  0  0  0  0  0
   77.7066   50.8711   44.7216 C   0  0  0  0  0  0
   78.4723   50.4247   45.4646 N   0  0  0  0  0  0
   73.5301   53.2752   41.6754 C   0  0  2  0  0  0
   73.5536   53.2080   40.1403 C   0  0  0  0  0  0
   74.1629   51.9154   39.6394 C   0  0  0  0  0  0
   75.5862   51.7783   40.1806 N   0  0  0  0  0  0
   72.6664   52.6907   41.9933 H   0  0  0  0  0  0
   72.5491   53.3463   39.7375 H   0  0  0  0  0  0
   74.1721   53.9906   39.7152 H   0  0  0  0  0  0
   74.0228   53.3179   44.1572 H   0  0  0  0  0  0
   78.2659   50.0552   41.5379 R   0  0  0  0  0  0
   73.5564   51.0654   39.9852 H   0  0  0  0  0  0
   74.1880   51.9241   38.5497 H   0  0  0  0  0  0
   76.4340   51.6429   39.6486 H   0  0  0  0  0  0
   73.3609   54.5702   42.1213 O   0  0  0  0  0  0
   72.1951   55.1818   41.7075 C   0  0  1  0  0  0
   70.9471   54.5049   42.2252 C   0  0  0  0  0  0
   69.9021   55.5986   42.0413 C   0  0  0  0  0  0
   70.6244   56.8158   42.2657 O   0  0  0  0  0  0
   72.0397   56.5904   42.2680 C   0  0  2  0  0  0
   72.7730   57.6174   41.4571 C   0  0  0  0  0  0
   72.2001   55.2069   40.6156 H   0  0  0  0  0  0
   70.6969   53.5891   41.6872 H   0  0  0  0  0  0
   71.0505   54.2536   43.2830 H   0  0  0  0  0  0
   69.5090   55.5974   41.0226 H   0  0  0  0  0  0
   69.0588   55.4921   42.7255 H   0  0  0  0  0  0
   72.4101   56.6468   43.2936 H   0  0  0  0  0  0
   73.8423   57.4079   41.4866 H   0  0  0  0  0  0
   72.4242   57.5821   40.4250 H   0  0  0  0  0  0
   72.5853   58.6084   41.8704 H   0  0  0  0  0  0
  1  2  1  0  0  0
  1  7  2  0  0  0
  1 18  1  0  0  0
  2  3  2  0  0  0
  2 13  1  0  0  0
  3  4  1  0  0  0
  3 10  1  0  0  0
  4  5  1  0  0  0
  4 17  1  0  0  0
  5  6  2  0  0  0
  5  7  1  0  0  0
  7  8  1  0  0  0
  8  9  3  0  0  0
 10 11  1  0  0  0
 10 14  1  0  0  0
 10 22  1  0  0  0
 11 12  1  0  0  0
 11 15  1  0  0  0
 11 16  1  0  0  0
 12 13  1  0  0  0
 12 19  1  0  0  0
 12 20  1  0  0  0
 13 21  1  0  0  0
 22 23  1  0  0  0
 23 24  1  0  0  0
 23 27  1  0  0  0
 23 29  1  0  0  0
 24 25  1  0  0  0
 24 30  1  0  0  0
 24 31  1  0  0  0
 25 26  1  0  0  0
 25 32  1  0  0  0
 25 33  1  0  0  0
 26 27  1  0  0  0
 27 28  1  0  0  0
 27 34  1  0  0  0
 28 35  1  0  0  0
 28 36  1  0  0  0
 28 37  1  0  0  0
M  END
> <b_m_subgroup_collapsed>
1

> <s_m_subgroup_title>
enumerate_139-out

> <s_m_subgroupid>
enumerate_139-out

$$$$
