8924-1
                    3D
 Schrodinger Suite 2024-3.
 43 46  0  0  1  0            999 V2000
   76.7152   51.2564   42.5117 C   0  0  0  0  0  0
   75.6469   51.8672   41.7091 C   0  0  0  0  0  0
   74.7156   52.5958   42.3599 C   0  0  0  0  0  0
   74.7624   52.7581   43.7471 N   0  0  0  0  0  0
   75.7023   52.2182   44.5484 C   0  0  0  0  0  0
   75.6665   52.3767   45.7684 O   0  0  0  0  0  0
   76.7303   51.4438   43.8559 C   0  0  0  0  0  0
   77.7066   50.8711   44.7216 C   0  0  0  0  0  0
   78.4723   50.4247   45.4646 N   0  0  0  0  0  0
   73.5301   53.2752   41.6754 C   0  0  2  0  0  0
   73.5536   53.2080   40.1403 C   0  0  0  0  0  0
   74.1629   51.9154   39.6394 C   0  0  0  0  0  0
   75.5862   51.7783   40.1806 N   0  0  0  0  0  0
   72.6664   52.6907   41.9933 H   0  0  0  0  0  0
   72.5491   53.3463   39.7375 H   0  0  0  0  0  0
   74.1721   53.9906   39.7152 H   0  0  0  0  0  0
   74.0228   53.3179   44.1572 H   0  0  0  0  0  0
   78.2659   50.0552   41.5379 R   0  0  0  0  0  0
   73.5564   51.0654   39.9852 H   0  0  0  0  0  0
   74.1880   51.9241   38.5497 H   0  0  0  0  0  0
   76.4340   51.6429   39.6486 H   0  0  0  0  0  0
   73.3462   54.6828   42.1601 C   0  0  0  0  0  0
   74.2656   55.6096   41.8185 C   0  0  0  0  0  0
   74.1478   57.0617   42.2910 C   0  0  2  0  0  0
   74.5668   57.1764   43.7672 C   0  0  0  0  0  0
   73.3218   56.7339   44.5729 C   0  0  0  0  0  0
   72.2013   56.5047   43.5295 C   0  0  2  0  0  0
   72.1338   55.0239   43.0337 C   0  0  0  0  0  0
   72.6506   57.4170   42.3759 C   0  0  1  0  0  0
   72.4533   58.8645   42.7163 C   0  0  0  0  0  0
   75.1175   55.3125   41.2209 H   0  0  0  0  0  0
   74.6938   57.7415   41.6335 H   0  0  0  0  0  0
   75.4495   56.5779   44.0008 H   0  0  0  0  0  0
   74.8153   58.2127   44.0046 H   0  0  0  0  0  0
   73.0353   57.5171   45.2773 H   0  0  0  0  0  0
   73.5185   55.8370   45.1628 H   0  0  0  0  0  0
   71.2292   56.8029   43.9279 H   0  0  0  0  0  0
   71.2277   54.8673   42.4464 H   0  0  0  0  0  0
   72.0714   54.3361   43.8784 H   0  0  0  0  0  0
   72.1107   57.2284   41.4455 H   0  0  0  0  0  0
   72.9790   59.0948   43.6430 H   0  0  0  0  0  0
   72.8480   59.4842   41.9110 H   0  0  0  0  0  0
   71.3896   59.0665   42.8421 H   0  0  0  0  0  0
  1  2  1  0  0  0
  1  7  2  0  0  0
  1 18  1  0  0  0
  2  3  2  0  0  0
  2 13  1  0  0  0
  3  4  1  0  0  0
  3 10  1  0  0  0
  4  5  1  0  0  0
  4 17  1  0  0  0
  5  6  2  0  0  0
  5  7  1  0  0  0
  7  8  1  0  0  0
  8  9  3  0  0  0
 10 11  1  0  0  0
 10 14  1  0  0  0
 10 22  1  0  0  0
 11 12  1  0  0  0
 11 15  1  0  0  0
 11 16  1  0  0  0
 12 13  1  0  0  0
 12 19  1  0  0  0
 12 20  1  0  0  0
 13 21  1  0  0  0
 22 23  2  0  0  0
 22 28  1  0  0  0
 23 24  1  0  0  0
 23 31  1  0  0  0
 24 25  1  0  0  0
 24 29  1  0  0  0
 24 32  1  0  0  0
 25 26  1  0  0  0
 25 33  1  0  0  0
 25 34  1  0  0  0
 26 27  1  0  0  0
 26 35  1  0  0  0
 26 36  1  0  0  0
 27 28  1  0  0  0
 27 29  1  0  0  0
 27 37  1  0  0  0
 28 38  1  0  0  0
 28 39  1  0  0  0
 29 30  1  0  0  0
 29 40  1  0  0  0
 30 41  1  0  0  0
 30 42  1  0  0  0
 30 43  1  0  0  0
M  END
> <b_m_subgroup_collapsed>
1

> <s_m_subgroup_title>
enumerate_139-out

> <s_m_subgroupid>
enumerate_139-out

$$$$
