28901-1
                    3D
 Schrodinger Suite 2024-3.
 39 45  0  0  1  0            999 V2000
   76.7152   51.2564   42.5117 C   0  0  0  0  0  0
   75.6469   51.8672   41.7091 C   0  0  0  0  0  0
   74.7156   52.5958   42.3599 C   0  0  0  0  0  0
   74.7624   52.7581   43.7471 N   0  0  0  0  0  0
   75.7023   52.2182   44.5484 C   0  0  0  0  0  0
   75.6665   52.3767   45.7684 O   0  0  0  0  0  0
   76.7303   51.4438   43.8559 C   0  0  0  0  0  0
   77.7066   50.8711   44.7216 C   0  0  0  0  0  0
   78.4723   50.4247   45.4646 N   0  0  0  0  0  0
   73.5301   53.2752   41.6754 C   0  0  2  0  0  0
   73.5536   53.2080   40.1403 C   0  0  0  0  0  0
   74.1629   51.9154   39.6394 C   0  0  0  0  0  0
   75.5862   51.7783   40.1806 N   0  0  0  0  0  0
   72.6664   52.6907   41.9933 H   0  0  0  0  0  0
   72.5491   53.3463   39.7375 H   0  0  0  0  0  0
   74.1721   53.9906   39.7152 H   0  0  0  0  0  0
   74.0228   53.3179   44.1572 H   0  0  0  0  0  0
   78.2659   50.0552   41.5379 R   0  0  0  0  0  0
   73.5564   51.0654   39.9852 H   0  0  0  0  0  0
   74.1880   51.9241   38.5497 H   0  0  0  0  0  0
   76.4340   51.6429   39.6486 H   0  0  0  0  0  0
   73.3462   54.6828   42.1601 C   0  0  0  0  0  0
   72.4213   54.9895   42.8275 C   0  0  1  0  0  0
   73.5553   56.0961   43.4542 C   0  0  1  0  0  0
   74.4244   55.8954   42.6801 C   0  0  2  0  0  0
   73.0718   57.1881   42.5447 C   0  0  2  0  0  0
   72.0225   56.0461   41.8389 C   0  0  1  0  0  0
   72.7901   55.5656   41.0808 C   0  0  1  0  0  0
   73.7838   56.8133   41.6801 C   0  0  0  0  0  0
   74.7939   57.7237   41.0470 C   0  0  0  0  0  0
   75.3873   57.0774   40.0448 F   0  0  0  0  0  0
   72.1973   54.0066   43.2579 H   0  0  0  0  0  0
   73.7656   56.4832   44.4785 H   0  0  0  0  0  0
   75.2448   55.7448   43.3911 H   0  0  0  0  0  0
   73.0832   58.2592   42.3127 H   0  0  0  0  0  0
   70.9246   56.0286   41.6453 H   0  0  0  0  0  0
   72.1820   55.6280   40.1711 H   0  0  0  0  0  0
   74.3013   58.6116   40.6507 H   0  0  0  0  0  0
   75.5501   58.0100   41.7781 H   0  0  0  0  0  0
  1  2  1  0  0  0
  1  7  2  0  0  0
  1 18  1  0  0  0
  2  3  2  0  0  0
  2 13  1  0  0  0
  3  4  1  0  0  0
  3 10  1  0  0  0
  4  5  1  0  0  0
  4 17  1  0  0  0
  5  6  2  0  0  0
  5  7  1  0  0  0
  7  8  1  0  0  0
  8  9  3  0  0  0
 10 11  1  0  0  0
 10 14  1  0  0  0
 10 22  1  0  0  0
 11 12  1  0  0  0
 11 15  1  0  0  0
 11 16  1  0  0  0
 12 13  1  0  0  0
 12 19  1  0  0  0
 12 20  1  0  0  0
 13 21  1  0  0  0
 22 23  1  0  0  0
 22 25  1  0  0  0
 22 27  1  0  0  0
 23 24  1  0  0  0
 23 28  1  0  0  0
 23 32  1  0  0  0
 24 25  1  0  0  0
 24 29  1  0  0  0
 24 33  1  0  0  0
 25 26  1  0  0  0
 25 34  1  0  0  0
 26 27  1  0  0  0
 26 29  1  0  0  0
 26 35  1  0  0  0
 27 28  1  0  0  0
 27 36  1  0  0  0
 28 29  1  0  0  0
 28 37  1  0  0  0
 29 30  1  0  0  0
 30 31  1  0  0  0
 30 38  1  0  0  0
 30 39  1  0  0  0
M  END
> <b_m_subgroup_collapsed>
1

> <s_m_subgroup_title>
enumerate_139-out

> <s_m_subgroupid>
enumerate_139-out

$$$$
