41329-3
                    3D
 Schrodinger Suite 2024-3.
 44 46  0  0  1  0            999 V2000
   76.7152   51.2564   42.5117 C   0  0  0  0  0  0
   75.6469   51.8672   41.7091 C   0  0  0  0  0  0
   74.7156   52.5958   42.3599 C   0  0  0  0  0  0
   74.7624   52.7581   43.7471 N   0  0  0  0  0  0
   75.7023   52.2182   44.5484 C   0  0  0  0  0  0
   75.6665   52.3767   45.7684 O   0  0  0  0  0  0
   76.7303   51.4438   43.8559 C   0  0  0  0  0  0
   77.7066   50.8711   44.7216 C   0  0  0  0  0  0
   78.4723   50.4247   45.4646 N   0  0  0  0  0  0
   73.5301   53.2752   41.6754 C   0  0  2  0  0  0
   73.5536   53.2080   40.1403 C   0  0  0  0  0  0
   74.1629   51.9154   39.6394 C   0  0  0  0  0  0
   75.5862   51.7783   40.1806 N   0  0  0  0  0  0
   72.6664   52.6907   41.9933 H   0  0  0  0  0  0
   72.5491   53.3463   39.7375 H   0  0  0  0  0  0
   74.1721   53.9906   39.7152 H   0  0  0  0  0  0
   74.0228   53.3179   44.1572 H   0  0  0  0  0  0
   78.2659   50.0552   41.5379 R   0  0  0  0  0  0
   73.5564   51.0654   39.9852 H   0  0  0  0  0  0
   74.1880   51.9241   38.5497 H   0  0  0  0  0  0
   76.4340   51.6429   39.6486 H   0  0  0  0  0  0
   73.3462   54.6828   42.1601 C   0  0  1  0  0  0
   73.0674   55.6664   41.0251 C   0  0  0  0  0  0
   72.1270   56.6980   41.6382 C   0  0  2  0  0  0
   70.9176   56.7031   40.9736 O   0  0  0  0  0  0
   72.6763   58.0927   41.5837 C   0  0  0  0  0  0
   72.8508   58.4673   40.2670 O   0  0  0  0  0  0
   71.9356   56.2301   43.0797 C   0  0  0  0  0  0
   70.5642   56.5287   43.6089 C   0  0  0  0  0  0
   72.9388   56.8480   44.0080 C   0  0  0  0  0  0
   72.1667   54.8295   42.9474 O   0  0  0  0  0  0
   74.2323   54.9627   42.7353 H   0  0  0  0  0  0
   73.9904   56.1071   40.6443 H   0  0  0  0  0  0
   72.5812   55.1542   40.1926 H   0  0  0  0  0  0
   71.9788   58.7771   42.0668 H   0  0  0  0  0  0
   73.6351   58.1261   42.1011 H   0  0  0  0  0  0
   70.4341   57.6076   43.6927 H   0  0  0  0  0  0
   69.8158   56.1242   42.9275 H   0  0  0  0  0  0
   70.4463   56.0711   44.5912 H   0  0  0  0  0  0
   72.7438   57.9170   44.0943 H   0  0  0  0  0  0
   72.8585   56.3836   44.9909 H   0  0  0  0  0  0
   73.9429   56.6925   43.6136 H   0  0  0  0  0  0
   70.8477   56.0514   40.2184 H   0  0  0  0  0  0
   73.2157   59.3889   40.1346 H   0  0  0  0  0  0
  1  2  1  0  0  0
  1  7  2  0  0  0
  1 18  1  0  0  0
  2  3  2  0  0  0
  2 13  1  0  0  0
  3  4  1  0  0  0
  3 10  1  0  0  0
  4  5  1  0  0  0
  4 17  1  0  0  0
  5  6  2  0  0  0
  5  7  1  0  0  0
  7  8  1  0  0  0
  8  9  3  0  0  0
 10 11  1  0  0  0
 10 14  1  0  0  0
 10 22  1  0  0  0
 11 12  1  0  0  0
 11 15  1  0  0  0
 11 16  1  0  0  0
 12 13  1  0  0  0
 12 19  1  0  0  0
 12 20  1  0  0  0
 13 21  1  0  0  0
 22 23  1  0  0  0
 22 31  1  0  0  0
 22 32  1  0  0  0
 23 24  1  0  0  0
 23 33  1  0  0  0
 23 34  1  0  0  0
 24 25  1  0  0  0
 24 26  1  0  0  0
 24 28  1  0  0  0
 25 43  1  0  0  0
 26 27  1  0  0  0
 26 35  1  0  0  0
 26 36  1  0  0  0
 27 44  1  0  0  0
 28 29  1  0  0  0
 28 30  1  0  0  0
 28 31  1  0  0  0
 29 37  1  0  0  0
 29 38  1  0  0  0
 29 39  1  0  0  0
 30 40  1  0  0  0
 30 41  1  0  0  0
 30 42  1  0  0  0
M  END
> <b_m_subgroup_collapsed>
1

> <s_m_subgroup_title>
enumerate_140-out

> <s_m_subgroupid>
enumerate_140-out

$$$$
