10600-2
                    3D
 Schrodinger Suite 2024-3.
 42 45  0  0  1  0            999 V2000
   76.7152   51.2564   42.5117 C   0  0  0  0  0  0
   75.6469   51.8672   41.7091 C   0  0  0  0  0  0
   74.7156   52.5958   42.3599 C   0  0  0  0  0  0
   74.7624   52.7581   43.7471 N   0  0  0  0  0  0
   75.7023   52.2182   44.5484 C   0  0  0  0  0  0
   75.6665   52.3767   45.7684 O   0  0  0  0  0  0
   76.7303   51.4438   43.8559 C   0  0  0  0  0  0
   77.7066   50.8711   44.7216 C   0  0  0  0  0  0
   78.4723   50.4247   45.4646 N   0  0  0  0  0  0
   73.5301   53.2752   41.6754 C   0  0  2  0  0  0
   73.5536   53.2080   40.1403 C   0  0  0  0  0  0
   74.1629   51.9154   39.6394 C   0  0  0  0  0  0
   75.5862   51.7783   40.1806 N   0  0  0  0  0  0
   72.6664   52.6907   41.9933 H   0  0  0  0  0  0
   72.5491   53.3463   39.7375 H   0  0  0  0  0  0
   74.1721   53.9906   39.7152 H   0  0  0  0  0  0
   74.0228   53.3179   44.1572 H   0  0  0  0  0  0
   78.2659   50.0552   41.5379 R   0  0  0  0  0  0
   73.5564   51.0654   39.9852 H   0  0  0  0  0  0
   74.1880   51.9241   38.5497 H   0  0  0  0  0  0
   76.4340   51.6429   39.6486 H   0  0  0  0  0  0
   73.3462   54.6828   42.1601 C   0  0  2  0  0  0
   72.0476   55.2248   41.6407 C   0  0  0  0  0  0
   70.7800   54.6079   42.2473 C   0  0  0  0  0  0
   70.1687   56.0156   42.2361 C   0  0  0  0  0  0
   71.6012   56.5663   42.2377 C   0  0  0  0  0  0
   74.4773   55.5341   41.6643 C   0  0  0  0  0  0
   74.8475   56.7792   42.4381 C   0  0  0  0  0  0
   75.7626   55.5758   42.4595 C   0  0  0  0  0  0
   73.3343   54.6931   43.2500 H   0  0  0  0  0  0
   72.0709   55.2097   40.5481 H   0  0  0  0  0  0
   70.2717   53.8670   41.6274 H   0  0  0  0  0  0
   70.9223   54.1925   43.2481 H   0  0  0  0  0  0
   69.6035   56.2482   41.3300 H   0  0  0  0  0  0
   69.5620   56.2743   43.1059 H   0  0  0  0  0  0
   72.0008   56.7643   43.2355 H   0  0  0  0  0  0
   71.7712   57.4429   41.6099 H   0  0  0  0  0  0
   74.5310   55.5555   40.5737 H   0  0  0  0  0  0
   75.1594   57.6692   41.8873 H   0  0  0  0  0  0
   74.2822   57.0279   43.3388 H   0  0  0  0  0  0
   75.8356   54.9851   43.3752 H   0  0  0  0  0  0
   76.7129   55.6263   41.9236 H   0  0  0  0  0  0
  1  2  1  0  0  0
  1  7  2  0  0  0
  1 18  1  0  0  0
  2  3  2  0  0  0
  2 13  1  0  0  0
  3  4  1  0  0  0
  3 10  1  0  0  0
  4  5  1  0  0  0
  4 17  1  0  0  0
  5  6  2  0  0  0
  5  7  1  0  0  0
  7  8  1  0  0  0
  8  9  3  0  0  0
 10 11  1  0  0  0
 10 14  1  0  0  0
 10 22  1  0  0  0
 11 12  1  0  0  0
 11 15  1  0  0  0
 11 16  1  0  0  0
 12 13  1  0  0  0
 12 19  1  0  0  0
 12 20  1  0  0  0
 13 21  1  0  0  0
 22 23  1  0  0  0
 22 27  1  0  0  0
 22 30  1  0  0  0
 23 24  1  0  0  0
 23 26  1  0  0  0
 23 31  1  0  0  0
 24 25  1  0  0  0
 24 32  1  0  0  0
 24 33  1  0  0  0
 25 26  1  0  0  0
 25 34  1  0  0  0
 25 35  1  0  0  0
 26 36  1  0  0  0
 26 37  1  0  0  0
 27 28  1  0  0  0
 27 29  1  0  0  0
 27 38  1  0  0  0
 28 29  1  0  0  0
 28 39  1  0  0  0
 28 40  1  0  0  0
 29 41  1  0  0  0
 29 42  1  0  0  0
M  END
> <b_m_subgroup_collapsed>
1

> <s_m_subgroup_title>
enumerate_140-out

> <s_m_subgroupid>
enumerate_140-out

$$$$
