11475-2
                    3D
 Schrodinger Suite 2024-3.
 41 44  0  0  1  0            999 V2000
   76.7152   51.2564   42.5117 C   0  0  0  0  0  0
   75.6469   51.8672   41.7091 C   0  0  0  0  0  0
   74.7156   52.5958   42.3599 C   0  0  0  0  0  0
   74.7624   52.7581   43.7471 N   0  0  0  0  0  0
   75.7023   52.2182   44.5484 C   0  0  0  0  0  0
   75.6665   52.3767   45.7684 O   0  0  0  0  0  0
   76.7303   51.4438   43.8559 C   0  0  0  0  0  0
   77.7066   50.8711   44.7216 C   0  0  0  0  0  0
   78.4723   50.4247   45.4646 N   0  0  0  0  0  0
   73.5301   53.2752   41.6754 C   0  0  2  0  0  0
   73.5536   53.2080   40.1403 C   0  0  0  0  0  0
   74.1629   51.9154   39.6394 C   0  0  0  0  0  0
   75.5862   51.7783   40.1806 N   0  0  0  0  0  0
   72.6664   52.6907   41.9933 H   0  0  0  0  0  0
   72.5491   53.3463   39.7375 H   0  0  0  0  0  0
   74.1721   53.9906   39.7152 H   0  0  0  0  0  0
   74.0228   53.3179   44.1572 H   0  0  0  0  0  0
   78.2659   50.0552   41.5379 R   0  0  0  0  0  0
   73.5564   51.0654   39.9852 H   0  0  0  0  0  0
   74.1880   51.9241   38.5497 H   0  0  0  0  0  0
   76.4340   51.6429   39.6486 H   0  0  0  0  0  0
   73.3511   54.6452   42.1472 N   0  0  0  0  0  0
   72.0872   55.1734   41.6419 C   0  0  1  0  0  0
   70.8175   54.8902   42.4124 C   0  0  0  0  0  0
   71.4028   56.2843   42.4058 C   0  0  2  0  0  0
   70.6967   57.3626   41.6386 C   0  0  0  0  0  0
   71.3803   58.0876   40.6698 C   0  0  0  0  0  0
   70.7261   59.0868   39.9589 C   0  0  0  0  0  0
   69.3882   59.3609   40.2168 C   0  0  0  0  0  0
   68.7045   58.6358   41.1856 C   0  0  0  0  0  0
   69.3588   57.6367   41.8965 C   0  0  0  0  0  0
   74.1131   55.2186   41.8146 H   0  0  0  0  0  0
   72.0506   55.1836   40.5505 H   0  0  0  0  0  0
   69.8952   54.7029   41.8584 H   0  0  0  0  0  0
   70.8772   54.2975   43.3278 H   0  0  0  0  0  0
   71.8707   56.6641   43.3166 H   0  0  0  0  0  0
   72.4220   57.8742   40.4690 H   0  0  0  0  0  0
   71.2584   59.6512   39.2047 H   0  0  0  0  0  0
   68.8789   60.1387   39.6634 H   0  0  0  0  0  0
   67.6629   58.8492   41.3864 H   0  0  0  0  0  0
   68.8265   57.0722   42.6508 H   0  0  0  0  0  0
  1  2  1  0  0  0
  1  7  2  0  0  0
  1 18  1  0  0  0
  2  3  2  0  0  0
  2 13  1  0  0  0
  3  4  1  0  0  0
  3 10  1  0  0  0
  4  5  1  0  0  0
  4 17  1  0  0  0
  5  6  2  0  0  0
  5  7  1  0  0  0
  7  8  1  0  0  0
  8  9  3  0  0  0
 10 11  1  0  0  0
 10 14  1  0  0  0
 10 22  1  0  0  0
 11 12  1  0  0  0
 11 15  1  0  0  0
 11 16  1  0  0  0
 12 13  1  0  0  0
 12 19  1  0  0  0
 12 20  1  0  0  0
 13 21  1  0  0  0
 22 23  1  0  0  0
 22 32  1  0  0  0
 23 24  1  0  0  0
 23 25  1  0  0  0
 23 33  1  0  0  0
 24 25  1  0  0  0
 24 34  1  0  0  0
 24 35  1  0  0  0
 25 26  1  0  0  0
 25 36  1  0  0  0
 26 27  2  0  0  0
 26 31  1  0  0  0
 27 28  1  0  0  0
 27 37  1  0  0  0
 28 29  2  0  0  0
 28 38  1  0  0  0
 29 30  1  0  0  0
 29 39  1  0  0  0
 30 31  2  0  0  0
 30 40  1  0  0  0
 31 41  1  0  0  0
M  END
> <b_m_subgroup_collapsed>
1

> <s_m_subgroup_title>
enumerate_139-out

> <s_m_subgroupid>
enumerate_139-out

$$$$
