44402-1
                    3D
 Schrodinger Suite 2024-3.
 42 44  0  0  1  0            999 V2000
   76.7152   51.2564   42.5117 C   0  0  0  0  0  0
   75.6469   51.8672   41.7091 C   0  0  0  0  0  0
   74.7156   52.5958   42.3599 C   0  0  0  0  0  0
   74.7624   52.7581   43.7471 N   0  0  0  0  0  0
   75.7023   52.2182   44.5484 C   0  0  0  0  0  0
   75.6665   52.3767   45.7684 O   0  0  0  0  0  0
   76.7303   51.4438   43.8559 C   0  0  0  0  0  0
   77.7066   50.8711   44.7216 C   0  0  0  0  0  0
   78.4723   50.4247   45.4646 N   0  0  0  0  0  0
   73.5301   53.2752   41.6754 C   0  0  2  0  0  0
   73.5536   53.2080   40.1403 C   0  0  0  0  0  0
   74.1629   51.9154   39.6394 C   0  0  0  0  0  0
   75.5862   51.7783   40.1806 N   0  0  0  0  0  0
   72.6664   52.6907   41.9933 H   0  0  0  0  0  0
   72.5491   53.3463   39.7375 H   0  0  0  0  0  0
   74.1721   53.9906   39.7152 H   0  0  0  0  0  0
   74.0228   53.3179   44.1572 H   0  0  0  0  0  0
   78.2659   50.0552   41.5379 R   0  0  0  0  0  0
   73.5564   51.0654   39.9852 H   0  0  0  0  0  0
   74.1880   51.9241   38.5497 H   0  0  0  0  0  0
   76.4340   51.6429   39.6486 H   0  0  0  0  0  0
   73.3462   54.6828   42.1601 C   0  0  0  0  0  0
   74.5647   54.9766   42.9840 C   0  0  0  0  0  0
   75.4932   55.2324   43.6252 N   0  0  0  0  0  0
   73.3260   55.6116   40.9321 C   0  0  0  0  0  0
   73.0899   57.1073   41.2236 C   0  0  0  0  0  0
   71.6495   57.4339   41.6625 C   0  0  0  0  0  0
   71.3269   57.2355   43.1587 C   0  0  0  0  0  0
   71.9712   56.0320   43.8788 C   0  0  0  0  0  0
   72.0960   54.7318   43.0614 C   0  0  0  0  0  0
   74.2797   55.5056   40.4119 H   0  0  0  0  0  0
   72.5738   55.2580   40.2245 H   0  0  0  0  0  0
   73.8106   57.4794   41.9540 H   0  0  0  0  0  0
   73.2946   57.6581   40.3037 H   0  0  0  0  0  0
   71.4256   58.4711   41.4063 H   0  0  0  0  0  0
   70.9538   56.8433   41.0635 H   0  0  0  0  0  0
   71.6047   58.1394   43.7041 H   0  0  0  0  0  0
   70.2420   57.1703   43.2611 H   0  0  0  0  0  0
   72.9598   56.3182   44.2428 H   0  0  0  0  0  0
   71.3904   55.8311   44.7810 H   0  0  0  0  0  0
   71.1902   54.5522   42.4797 H   0  0  0  0  0  0
   72.1634   53.8983   43.7630 H   0  0  0  0  0  0
  1  2  1  0  0  0
  1  7  2  0  0  0
  1 18  1  0  0  0
  2  3  2  0  0  0
  2 13  1  0  0  0
  3  4  1  0  0  0
  3 10  1  0  0  0
  4  5  1  0  0  0
  4 17  1  0  0  0
  5  6  2  0  0  0
  5  7  1  0  0  0
  7  8  1  0  0  0
  8  9  3  0  0  0
 10 11  1  0  0  0
 10 14  1  0  0  0
 10 22  1  0  0  0
 11 12  1  0  0  0
 11 15  1  0  0  0
 11 16  1  0  0  0
 12 13  1  0  0  0
 12 19  1  0  0  0
 12 20  1  0  0  0
 13 21  1  0  0  0
 22 23  1  0  0  0
 22 25  1  0  0  0
 22 30  1  0  0  0
 23 24  3  0  0  0
 25 26  1  0  0  0
 25 31  1  0  0  0
 25 32  1  0  0  0
 26 27  1  0  0  0
 26 33  1  0  0  0
 26 34  1  0  0  0
 27 28  1  0  0  0
 27 35  1  0  0  0
 27 36  1  0  0  0
 28 29  1  0  0  0
 28 37  1  0  0  0
 28 38  1  0  0  0
 29 30  1  0  0  0
 29 39  1  0  0  0
 29 40  1  0  0  0
 30 41  1  0  0  0
 30 42  1  0  0  0
M  END
> <b_m_subgroup_collapsed>
1

> <s_m_subgroup_title>
enumerate_139-out

> <s_m_subgroupid>
enumerate_139-out

$$$$
