22326-1
                    3D
 Schrodinger Suite 2024-3.
 46 50  0  0  1  0            999 V2000
   76.7152   51.2564   42.5117 C   0  0  0  0  0  0
   75.6469   51.8672   41.7091 C   0  0  0  0  0  0
   74.7156   52.5958   42.3599 C   0  0  0  0  0  0
   74.7624   52.7581   43.7471 N   0  0  0  0  0  0
   75.7023   52.2182   44.5484 C   0  0  0  0  0  0
   75.6665   52.3767   45.7684 O   0  0  0  0  0  0
   76.7303   51.4438   43.8559 C   0  0  0  0  0  0
   77.7066   50.8711   44.7216 C   0  0  0  0  0  0
   78.4723   50.4247   45.4646 N   0  0  0  0  0  0
   73.5301   53.2752   41.6754 C   0  0  2  0  0  0
   73.5536   53.2080   40.1403 C   0  0  0  0  0  0
   74.1629   51.9154   39.6394 C   0  0  0  0  0  0
   75.5862   51.7783   40.1806 N   0  0  0  0  0  0
   72.6664   52.6907   41.9933 H   0  0  0  0  0  0
   72.5491   53.3463   39.7375 H   0  0  0  0  0  0
   74.1721   53.9906   39.7152 H   0  0  0  0  0  0
   74.0228   53.3179   44.1572 H   0  0  0  0  0  0
   78.2659   50.0552   41.5379 R   0  0  0  0  0  0
   73.5564   51.0654   39.9852 H   0  0  0  0  0  0
   74.1880   51.9241   38.5497 H   0  0  0  0  0  0
   76.4340   51.6429   39.6486 H   0  0  0  0  0  0
   73.3462   54.6828   42.1601 C   0  0  1  0  0  0
   72.0547   54.7722   43.0035 C   0  0  0  0  0  0
   71.8673   56.2222   43.5030 C   0  0  2  0  0  0
   71.7570   57.1740   42.2910 C   0  0  0  0  0  0
   73.0489   57.0839   41.4483 C   0  0  1  0  0  0
   74.2609   57.4917   42.3157 C   0  0  0  0  0  0
   74.3657   56.5378   43.5244 C   0  0  1  0  0  0
   75.4106   56.8890   44.2726 F   0  0  0  0  0  0
   73.0787   56.6298   44.3712 C   0  0  0  0  0  0
   74.5584   55.0894   43.0277 C   0  0  0  0  0  0
   73.2367   55.6344   40.9477 C   0  0  0  0  0  0
   71.1933   54.4623   42.4102 H   0  0  0  0  0  0
   72.1064   54.0844   43.8489 H   0  0  0  0  0  0
   70.9563   56.2862   44.0993 H   0  0  0  0  0  0
   71.5955   58.1990   42.6280 H   0  0  0  0  0  0
   70.8900   56.9124   41.6827 H   0  0  0  0  0  0
   72.9727   57.7567   40.5933 H   0  0  0  0  0  0
   74.1543   58.5220   42.6568 H   0  0  0  0  0  0
   75.1783   57.4560   41.7269 H   0  0  0  0  0  0
   73.1552   55.9814   45.2447 H   0  0  0  0  0  0
   72.9493   57.6438   44.7512 H   0  0  0  0  0  0
   74.6633   54.4111   43.8753 H   0  0  0  0  0  0
   75.4814   55.0078   42.4525 H   0  0  0  0  0  0
   74.1310   55.5613   40.3271 H   0  0  0  0  0  0
   72.3994   55.3425   40.3122 H   0  0  0  0  0  0
  1  2  1  0  0  0
  1  7  2  0  0  0
  1 18  1  0  0  0
  2  3  2  0  0  0
  2 13  1  0  0  0
  3  4  1  0  0  0
  3 10  1  0  0  0
  4  5  1  0  0  0
  4 17  1  0  0  0
  5  6  2  0  0  0
  5  7  1  0  0  0
  7  8  1  0  0  0
  8  9  3  0  0  0
 10 11  1  0  0  0
 10 14  1  0  0  0
 10 22  1  0  0  0
 11 12  1  0  0  0
 11 15  1  0  0  0
 11 16  1  0  0  0
 12 13  1  0  0  0
 12 19  1  0  0  0
 12 20  1  0  0  0
 13 21  1  0  0  0
 22 23  1  0  0  0
 22 31  1  0  0  0
 22 32  1  0  0  0
 23 24  1  0  0  0
 23 33  1  0  0  0
 23 34  1  0  0  0
 24 25  1  0  0  0
 24 30  1  0  0  0
 24 35  1  0  0  0
 25 26  1  0  0  0
 25 36  1  0  0  0
 25 37  1  0  0  0
 26 27  1  0  0  0
 26 32  1  0  0  0
 26 38  1  0  0  0
 27 28  1  0  0  0
 27 39  1  0  0  0
 27 40  1  0  0  0
 28 29  1  0  0  0
 28 30  1  0  0  0
 28 31  1  0  0  0
 30 41  1  0  0  0
 30 42  1  0  0  0
 31 43  1  0  0  0
 31 44  1  0  0  0
 32 45  1  0  0  0
 32 46  1  0  0  0
M  END
> <b_m_subgroup_collapsed>
1

> <s_m_subgroup_title>
enumerate_140-out

> <s_m_subgroupid>
enumerate_140-out

$$$$
