40466-1
                    3D
 Schrodinger Suite 2024-3.
 43 45  0  0  1  0            999 V2000
   76.7152   51.2564   42.5117 C   0  0  0  0  0  0
   75.6469   51.8672   41.7091 C   0  0  0  0  0  0
   74.7156   52.5958   42.3599 C   0  0  0  0  0  0
   74.7624   52.7581   43.7471 N   0  0  0  0  0  0
   75.7023   52.2182   44.5484 C   0  0  0  0  0  0
   75.6665   52.3767   45.7684 O   0  0  0  0  0  0
   76.7303   51.4438   43.8559 C   0  0  0  0  0  0
   77.7066   50.8711   44.7216 C   0  0  0  0  0  0
   78.4723   50.4247   45.4646 N   0  0  0  0  0  0
   73.5301   53.2752   41.6754 C   0  0  2  0  0  0
   73.5536   53.2080   40.1403 C   0  0  0  0  0  0
   74.1629   51.9154   39.6394 C   0  0  0  0  0  0
   75.5862   51.7783   40.1806 N   0  0  0  0  0  0
   72.6664   52.6907   41.9933 H   0  0  0  0  0  0
   72.5491   53.3463   39.7375 H   0  0  0  0  0  0
   74.1721   53.9906   39.7152 H   0  0  0  0  0  0
   74.0228   53.3179   44.1572 H   0  0  0  0  0  0
   78.2659   50.0552   41.5379 R   0  0  0  0  0  0
   73.5564   51.0654   39.9852 H   0  0  0  0  0  0
   74.1880   51.9241   38.5497 H   0  0  0  0  0  0
   76.4340   51.6429   39.6486 H   0  0  0  0  0  0
   73.3462   54.6828   42.1601 C   0  0  0  0  0  0
   72.0830   54.7071   42.9686 C   0  0  1  0  0  0
   71.8641   55.9850   43.4416 O   0  0  0  0  0  0
   70.9292   54.2887   42.1062 C   0  0  0  0  0  0
   69.7670   54.3112   42.8500 O   0  0  0  0  0  0
   74.5167   55.1573   43.0246 C   0  0  0  0  0  0
   74.4936   56.6764   42.8670 C   0  0  0  0  0  0
   74.1401   56.8851   41.3925 C   0  0  0  0  0  0
   73.2429   55.6967   41.0086 C   0  0  0  0  0  0
   72.1763   54.0196   43.8092 H   0  0  0  0  0  0
   70.8359   54.9763   41.2655 H   0  0  0  0  0  0
   71.1021   53.2795   41.7326 H   0  0  0  0  0  0
   74.4308   54.8380   44.0647 H   0  0  0  0  0  0
   75.4557   54.7565   42.6365 H   0  0  0  0  0  0
   73.7161   57.1054   43.5030 H   0  0  0  0  0  0
   75.4388   57.1456   43.1456 H   0  0  0  0  0  0
   73.6600   57.8489   41.2138 H   0  0  0  0  0  0
   75.0520   56.8660   40.7919 H   0  0  0  0  0  0
   73.5721   55.2582   40.0645 H   0  0  0  0  0  0
   72.2071   56.0118   40.8681 H   0  0  0  0  0  0
   71.7656   56.6859   42.7352 H   0  0  0  0  0  0
   68.9416   54.0447   42.3524 H   0  0  0  0  0  0
  1  2  1  0  0  0
  1  7  2  0  0  0
  1 18  1  0  0  0
  2  3  2  0  0  0
  2 13  1  0  0  0
  3  4  1  0  0  0
  3 10  1  0  0  0
  4  5  1  0  0  0
  4 17  1  0  0  0
  5  6  2  0  0  0
  5  7  1  0  0  0
  7  8  1  0  0  0
  8  9  3  0  0  0
 10 11  1  0  0  0
 10 14  1  0  0  0
 10 22  1  0  0  0
 11 12  1  0  0  0
 11 15  1  0  0  0
 11 16  1  0  0  0
 12 13  1  0  0  0
 12 19  1  0  0  0
 12 20  1  0  0  0
 13 21  1  0  0  0
 22 23  1  0  0  0
 22 27  1  0  0  0
 22 30  1  0  0  0
 23 24  1  0  0  0
 23 25  1  0  0  0
 23 31  1  0  0  0
 24 42  1  0  0  0
 25 26  1  0  0  0
 25 32  1  0  0  0
 25 33  1  0  0  0
 26 43  1  0  0  0
 27 28  1  0  0  0
 27 34  1  0  0  0
 27 35  1  0  0  0
 28 29  1  0  0  0
 28 36  1  0  0  0
 28 37  1  0  0  0
 29 30  1  0  0  0
 29 38  1  0  0  0
 29 39  1  0  0  0
 30 40  1  0  0  0
 30 41  1  0  0  0
M  END
> <b_m_subgroup_collapsed>
1

> <s_m_subgroup_title>
enumerate_140-out

> <s_m_subgroupid>
enumerate_140-out

$$$$
