22958-6
                    3D
 Schrodinger Suite 2024-3.
 44 47  0  0  1  0            999 V2000
   76.7152   51.2564   42.5117 C   0  0  0  0  0  0
   75.6469   51.8672   41.7091 C   0  0  0  0  0  0
   74.7156   52.5958   42.3599 C   0  0  0  0  0  0
   74.7624   52.7581   43.7471 N   0  0  0  0  0  0
   75.7023   52.2182   44.5484 C   0  0  0  0  0  0
   75.6665   52.3767   45.7684 O   0  0  0  0  0  0
   76.7303   51.4438   43.8559 C   0  0  0  0  0  0
   77.7066   50.8711   44.7216 C   0  0  0  0  0  0
   78.4723   50.4247   45.4646 N   0  0  0  0  0  0
   73.5301   53.2752   41.6754 C   0  0  2  0  0  0
   73.5536   53.2080   40.1403 C   0  0  0  0  0  0
   74.1629   51.9154   39.6394 C   0  0  0  0  0  0
   75.5862   51.7783   40.1806 N   0  0  0  0  0  0
   72.6664   52.6907   41.9933 H   0  0  0  0  0  0
   72.5491   53.3463   39.7375 H   0  0  0  0  0  0
   74.1721   53.9906   39.7152 H   0  0  0  0  0  0
   74.0228   53.3179   44.1572 H   0  0  0  0  0  0
   78.2659   50.0552   41.5379 R   0  0  0  0  0  0
   73.5564   51.0654   39.9852 H   0  0  0  0  0  0
   74.1880   51.9241   38.5497 H   0  0  0  0  0  0
   76.4340   51.6429   39.6486 H   0  0  0  0  0  0
   73.3609   54.5702   42.1213 O   0  0  0  0  0  0
   72.1951   55.1818   41.7075 C   0  0  2  0  0  0
   72.0389   56.6009   42.2608 C   0  0  0  0  0  0
   70.5333   56.8930   42.1850 C   0  0  2  0  0  0
   70.0056   57.5268   43.3550 O   0  0  0  0  0  0
   69.5521   56.5292   44.2688 C   0  0  0  0  0  0
   68.8835   55.5440   43.3186 C   0  0  2  0  0  0
   68.6694   54.1955   43.9396 C   0  0  0  0  0  0
   69.8279   55.5287   42.1254 C   0  0  2  0  0  0
   70.9400   54.4631   42.2032 C   0  0  0  0  0  0
   72.2074   55.2031   40.6155 H   0  0  0  0  0  0
   72.3761   56.6309   43.2981 H   0  0  0  0  0  0
   72.6298   57.3321   41.7080 H   0  0  0  0  0  0
   70.3006   57.4897   41.3004 H   0  0  0  0  0  0
   70.3933   56.0781   44.8001 H   0  0  0  0  0  0
   68.8612   56.9363   45.0085 H   0  0  0  0  0  0
   67.9049   55.9276   43.0237 H   0  0  0  0  0  0
   69.6293   53.7807   44.2473 H   0  0  0  0  0  0
   68.0209   54.2952   44.8100 H   0  0  0  0  0  0
   68.2025   53.5308   43.2128 H   0  0  0  0  0  0
   69.2789   55.4268   41.1865 H   0  0  0  0  0  0
   70.7097   53.5733   41.6146 H   0  0  0  0  0  0
   71.0986   54.1332   43.2324 H   0  0  0  0  0  0
  1  2  1  0  0  0
  1  7  2  0  0  0
  1 18  1  0  0  0
  2  3  2  0  0  0
  2 13  1  0  0  0
  3  4  1  0  0  0
  3 10  1  0  0  0
  4  5  1  0  0  0
  4 17  1  0  0  0
  5  6  2  0  0  0
  5  7  1  0  0  0
  7  8  1  0  0  0
  8  9  3  0  0  0
 10 11  1  0  0  0
 10 14  1  0  0  0
 10 22  1  0  0  0
 11 12  1  0  0  0
 11 15  1  0  0  0
 11 16  1  0  0  0
 12 13  1  0  0  0
 12 19  1  0  0  0
 12 20  1  0  0  0
 13 21  1  0  0  0
 22 23  1  0  0  0
 23 24  1  0  0  0
 23 31  1  0  0  0
 23 32  1  0  0  0
 24 25  1  0  0  0
 24 33  1  0  0  0
 24 34  1  0  0  0
 25 26  1  0  0  0
 25 30  1  0  0  0
 25 35  1  0  0  0
 26 27  1  0  0  0
 27 28  1  0  0  0
 27 36  1  0  0  0
 27 37  1  0  0  0
 28 29  1  0  0  0
 28 30  1  0  0  0
 28 38  1  0  0  0
 29 39  1  0  0  0
 29 40  1  0  0  0
 29 41  1  0  0  0
 30 31  1  0  0  0
 30 42  1  0  0  0
 31 43  1  0  0  0
 31 44  1  0  0  0
M  END
> <b_m_subgroup_collapsed>
1

> <s_m_subgroup_title>
enumerate_140-out

> <s_m_subgroupid>
enumerate_140-out

$$$$
