34970-1
                    3D
 Schrodinger Suite 2024-3.
 42 44  0  0  1  0            999 V2000
   76.7152   51.2564   42.5117 C   0  0  0  0  0  0
   75.6469   51.8672   41.7091 C   0  0  0  0  0  0
   74.7156   52.5958   42.3599 C   0  0  0  0  0  0
   74.7624   52.7581   43.7471 N   0  0  0  0  0  0
   75.7023   52.2182   44.5484 C   0  0  0  0  0  0
   75.6665   52.3767   45.7684 O   0  0  0  0  0  0
   76.7303   51.4438   43.8559 C   0  0  0  0  0  0
   77.7066   50.8711   44.7216 C   0  0  0  0  0  0
   78.4723   50.4247   45.4646 N   0  0  0  0  0  0
   73.5301   53.2752   41.6754 C   0  0  2  0  0  0
   73.5536   53.2080   40.1403 C   0  0  0  0  0  0
   74.1629   51.9154   39.6394 C   0  0  0  0  0  0
   75.5862   51.7783   40.1806 N   0  0  0  0  0  0
   72.6664   52.6907   41.9933 H   0  0  0  0  0  0
   72.5491   53.3463   39.7375 H   0  0  0  0  0  0
   74.1721   53.9906   39.7152 H   0  0  0  0  0  0
   74.0228   53.3179   44.1572 H   0  0  0  0  0  0
   78.2659   50.0552   41.5379 R   0  0  0  0  0  0
   73.5564   51.0654   39.9852 H   0  0  0  0  0  0
   74.1880   51.9241   38.5497 H   0  0  0  0  0  0
   76.4340   51.6429   39.6486 H   0  0  0  0  0  0
   73.3462   54.6828   42.1601 C   0  0  1  0  0  0
   73.2497   55.5351   40.9295 C   0  0  0  0  0  0
   72.0368   54.7969   42.9665 C   0  0  0  0  0  0
   71.8514   56.2085   43.5590 C   0  0  0  0  0  0
   73.0747   56.6450   44.3900 C   0  0  1  0  0  0
   73.1635   55.8609   45.5222 O   0  0  0  0  0  0
   74.3840   56.5309   43.5836 C   0  0  0  0  0  0
   74.5695   55.1194   42.9912 C   0  0  0  0  0  0
   73.1142   56.5772   41.2190 H   0  0  0  0  0  0
   74.1652   55.4361   40.3463 H   0  0  0  0  0  0
   72.3995   55.2113   40.3291 H   0  0  0  0  0  0
   71.1848   54.5421   42.3340 H   0  0  0  0  0  0
   72.0429   54.0624   43.7741 H   0  0  0  0  0  0
   70.9507   56.2402   44.1744 H   0  0  0  0  0  0
   71.6887   56.9231   42.7498 H   0  0  0  0  0  0
   72.9409   57.6691   44.7427 H   0  0  0  0  0  0
   75.2361   56.7858   44.2161 H   0  0  0  0  0  0
   74.3779   57.2654   42.7760 H   0  0  0  0  0  0
   74.7321   54.4048   43.8003 H   0  0  0  0  0  0
   75.4702   55.0876   42.3757 H   0  0  0  0  0  0
   73.0918   56.3578   46.3870 H   0  0  0  0  0  0
  1  2  1  0  0  0
  1  7  2  0  0  0
  1 18  1  0  0  0
  2  3  2  0  0  0
  2 13  1  0  0  0
  3  4  1  0  0  0
  3 10  1  0  0  0
  4  5  1  0  0  0
  4 17  1  0  0  0
  5  6  2  0  0  0
  5  7  1  0  0  0
  7  8  1  0  0  0
  8  9  3  0  0  0
 10 11  1  0  0  0
 10 14  1  0  0  0
 10 22  1  0  0  0
 11 12  1  0  0  0
 11 15  1  0  0  0
 11 16  1  0  0  0
 12 13  1  0  0  0
 12 19  1  0  0  0
 12 20  1  0  0  0
 13 21  1  0  0  0
 22 23  1  0  0  0
 22 24  1  0  0  0
 22 29  1  0  0  0
 23 30  1  0  0  0
 23 31  1  0  0  0
 23 32  1  0  0  0
 24 25  1  0  0  0
 24 33  1  0  0  0
 24 34  1  0  0  0
 25 26  1  0  0  0
 25 35  1  0  0  0
 25 36  1  0  0  0
 26 27  1  0  0  0
 26 28  1  0  0  0
 26 37  1  0  0  0
 27 42  1  0  0  0
 28 29  1  0  0  0
 28 38  1  0  0  0
 28 39  1  0  0  0
 29 40  1  0  0  0
 29 41  1  0  0  0
M  END
> <b_m_subgroup_collapsed>
1

> <s_m_subgroup_title>
enumerate_139-out

> <s_m_subgroupid>
enumerate_139-out

$$$$
