40429-1
                    3D
 Schrodinger Suite 2024-3.
 41 42  0  0  1  0            999 V2000
   76.7152   51.2564   42.5117 C   0  0  0  0  0  0
   75.6469   51.8672   41.7091 C   0  0  0  0  0  0
   74.7156   52.5958   42.3599 C   0  0  0  0  0  0
   74.7624   52.7581   43.7471 N   0  0  0  0  0  0
   75.7023   52.2182   44.5484 C   0  0  0  0  0  0
   75.6665   52.3767   45.7684 O   0  0  0  0  0  0
   76.7303   51.4438   43.8559 C   0  0  0  0  0  0
   77.7066   50.8711   44.7216 C   0  0  0  0  0  0
   78.4723   50.4247   45.4646 N   0  0  0  0  0  0
   73.5301   53.2752   41.6754 C   0  0  2  0  0  0
   73.5536   53.2080   40.1403 C   0  0  0  0  0  0
   74.1629   51.9154   39.6394 C   0  0  0  0  0  0
   75.5862   51.7783   40.1806 N   0  0  0  0  0  0
   72.6664   52.6907   41.9933 H   0  0  0  0  0  0
   72.5491   53.3463   39.7375 H   0  0  0  0  0  0
   74.1721   53.9906   39.7152 H   0  0  0  0  0  0
   74.0228   53.3179   44.1572 H   0  0  0  0  0  0
   78.2659   50.0552   41.5379 R   0  0  0  0  0  0
   73.5564   51.0654   39.9852 H   0  0  0  0  0  0
   74.1880   51.9241   38.5497 H   0  0  0  0  0  0
   76.4340   51.6429   39.6486 H   0  0  0  0  0  0
   73.3511   54.6452   42.1472 N   0  0  0  0  0  0
   71.8448   55.2747   41.5451 S   0  0  0  0  0  0
   71.9616   55.3871   40.0870 O   0  0  0  0  0  0
   70.7614   54.5116   42.1743 O   0  0  0  0  0  0
   71.7998   56.8878   42.1958 N   0  0  0  0  0  0
   72.9533   57.6409   41.7120 C   0  0  0  0  0  0
   70.5711   57.5512   41.7696 C   0  0  0  0  0  0
   70.5330   58.9417   42.3309 C   0  0  0  0  0  0
   69.3865   56.7780   42.2684 C   0  0  0  0  0  0
   72.9246   58.6512   42.1200 H   0  0  0  0  0  0
   73.8704   57.1459   42.0316 H   0  0  0  0  0  0
   72.9260   57.6877   40.6234 H   0  0  0  0  0  0
   70.5422   57.5979   40.6810 H   0  0  0  0  0  0
   69.6156   59.4369   42.0127 H   0  0  0  0  0  0
   70.5618   58.8949   43.4196 H   0  0  0  0  0  0
   71.3938   59.5036   41.9685 H   0  0  0  0  0  0
   68.4691   57.2732   41.9502 H   0  0  0  0  0  0
   69.4142   55.7675   41.8605 H   0  0  0  0  0  0
   69.4153   56.7312   43.3570 H   0  0  0  0  0  0
   74.1131   55.2186   41.8146 H   0  0  0  0  0  0
  1  2  1  0  0  0
  1  7  2  0  0  0
  1 18  1  0  0  0
  2  3  2  0  0  0
  2 13  1  0  0  0
  3  4  1  0  0  0
  3 10  1  0  0  0
  4  5  1  0  0  0
  4 17  1  0  0  0
  5  6  2  0  0  0
  5  7  1  0  0  0
  7  8  1  0  0  0
  8  9  3  0  0  0
 10 11  1  0  0  0
 10 14  1  0  0  0
 10 22  1  0  0  0
 11 12  1  0  0  0
 11 15  1  0  0  0
 11 16  1  0  0  0
 12 13  1  0  0  0
 12 19  1  0  0  0
 12 20  1  0  0  0
 13 21  1  0  0  0
 22 23  1  0  0  0
 22 41  1  0  0  0
 23 24  2  0  0  0
 23 25  2  0  0  0
 23 26  1  0  0  0
 26 27  1  0  0  0
 26 28  1  0  0  0
 27 31  1  0  0  0
 27 32  1  0  0  0
 27 33  1  0  0  0
 28 29  1  0  0  0
 28 30  1  0  0  0
 28 34  1  0  0  0
 29 35  1  0  0  0
 29 36  1  0  0  0
 29 37  1  0  0  0
 30 38  1  0  0  0
 30 39  1  0  0  0
 30 40  1  0  0  0
M  END
> <b_m_subgroup_collapsed>
1

> <s_m_subgroup_title>
enumerate_140-out

> <s_m_subgroupid>
enumerate_140-out

$$$$
