25289-1
                    3D
 Schrodinger Suite 2024-3.
 42 43  0  0  1  0            999 V2000
   76.7152   51.2564   42.5117 C   0  0  0  0  0  0
   75.6469   51.8672   41.7091 C   0  0  0  0  0  0
   74.7156   52.5958   42.3599 C   0  0  0  0  0  0
   74.7624   52.7581   43.7471 N   0  0  0  0  0  0
   75.7023   52.2182   44.5484 C   0  0  0  0  0  0
   75.6665   52.3767   45.7684 O   0  0  0  0  0  0
   76.7303   51.4438   43.8559 C   0  0  0  0  0  0
   77.7066   50.8711   44.7216 C   0  0  0  0  0  0
   78.4723   50.4247   45.4646 N   0  0  0  0  0  0
   73.5301   53.2752   41.6754 C   0  0  2  0  0  0
   73.5536   53.2080   40.1403 C   0  0  0  0  0  0
   74.1629   51.9154   39.6394 C   0  0  0  0  0  0
   75.5862   51.7783   40.1806 N   0  0  0  0  0  0
   72.6664   52.6907   41.9933 H   0  0  0  0  0  0
   72.5491   53.3463   39.7375 H   0  0  0  0  0  0
   74.1721   53.9906   39.7152 H   0  0  0  0  0  0
   74.0228   53.3179   44.1572 H   0  0  0  0  0  0
   78.2659   50.0552   41.5379 R   0  0  0  0  0  0
   73.5564   51.0654   39.9852 H   0  0  0  0  0  0
   74.1880   51.9241   38.5497 H   0  0  0  0  0  0
   76.4340   51.6429   39.6486 H   0  0  0  0  0  0
   68.8390   56.4198   47.0038 C   0  0  0  0  0  0
   68.5702   56.0186   45.5837 C   0  0  0  0  0  0
   69.8433   56.0923   44.7938 C   0  0  0  0  0  0
   69.5745   55.6911   43.3736 C   0  0  0  0  0  0
   70.8475   55.7648   42.5837 C   0  0  0  0  0  0
   71.8348   54.8606   43.1663 N   0  0  0  0  0  0
   73.3119   54.9455   42.2506 S   0  0  0  0  0  0
   74.4004   55.2377   43.1896 O   0  0  0  0  0  0
   73.0593   55.7897   41.0776 O   0  0  0  0  0  0
   67.9140   56.3662   47.5778 H   0  0  0  0  0  0
   69.5761   55.7447   47.4387 H   0  0  0  0  0  0
   69.2224   57.4399   47.0268 H   0  0  0  0  0  0
   67.8332   56.6936   45.1487 H   0  0  0  0  0  0
   68.1869   54.9985   45.5606 H   0  0  0  0  0  0
   70.5803   55.4172   45.2287 H   0  0  0  0  0  0
   70.2266   57.1124   44.8168 H   0  0  0  0  0  0
   68.8374   56.3661   42.9387 H   0  0  0  0  0  0
   69.1911   54.6710   43.3506 H   0  0  0  0  0  0
   71.2308   56.7849   42.6067 H   0  0  0  0  0  0
   70.6522   55.4732   41.5518 H   0  0  0  0  0  0
   71.4795   53.9154   43.1463 H   0  0  0  0  0  0
  1  2  1  0  0  0
  1  7  2  0  0  0
  1 18  1  0  0  0
  2  3  2  0  0  0
  2 13  1  0  0  0
  3  4  1  0  0  0
  3 10  1  0  0  0
  4  5  1  0  0  0
  4 17  1  0  0  0
  5  6  2  0  0  0
  5  7  1  0  0  0
  7  8  1  0  0  0
  8  9  3  0  0  0
 10 11  1  0  0  0
 10 14  1  0  0  0
 10 28  1  0  0  0
 11 12  1  0  0  0
 11 15  1  0  0  0
 11 16  1  0  0  0
 12 13  1  0  0  0
 12 19  1  0  0  0
 12 20  1  0  0  0
 13 21  1  0  0  0
 22 23  1  0  0  0
 22 31  1  0  0  0
 22 32  1  0  0  0
 22 33  1  0  0  0
 23 24  1  0  0  0
 23 34  1  0  0  0
 23 35  1  0  0  0
 24 25  1  0  0  0
 24 36  1  0  0  0
 24 37  1  0  0  0
 25 26  1  0  0  0
 25 38  1  0  0  0
 25 39  1  0  0  0
 26 27  1  0  0  0
 26 40  1  0  0  0
 26 41  1  0  0  0
 27 28  1  0  0  0
 27 42  1  0  0  0
 28 29  2  0  0  0
 28 30  2  0  0  0
M  END
> <b_m_subgroup_collapsed>
1

> <s_m_subgroup_title>
enumerate_140-out

> <s_m_subgroupid>
enumerate_140-out

$$$$
