10321-1
                    3D
 Schrodinger Suite 2024-3.
 41 42  0  0  1  0            999 V2000
   76.7152   51.2564   42.5117 C   0  0  0  0  0  0
   75.6469   51.8672   41.7091 C   0  0  0  0  0  0
   74.7156   52.5958   42.3599 C   0  0  0  0  0  0
   74.7624   52.7581   43.7471 N   0  0  0  0  0  0
   75.7023   52.2182   44.5484 C   0  0  0  0  0  0
   75.6665   52.3767   45.7684 O   0  0  0  0  0  0
   76.7303   51.4438   43.8559 C   0  0  0  0  0  0
   77.7066   50.8711   44.7216 C   0  0  0  0  0  0
   78.4723   50.4247   45.4646 N   0  0  0  0  0  0
   73.5301   53.2752   41.6754 C   0  0  2  0  0  0
   73.5536   53.2080   40.1403 C   0  0  0  0  0  0
   74.1629   51.9154   39.6394 C   0  0  0  0  0  0
   75.5862   51.7783   40.1806 N   0  0  0  0  0  0
   72.6664   52.6907   41.9933 H   0  0  0  0  0  0
   72.5491   53.3463   39.7375 H   0  0  0  0  0  0
   74.1721   53.9906   39.7152 H   0  0  0  0  0  0
   74.0228   53.3179   44.1572 H   0  0  0  0  0  0
   78.2659   50.0552   41.5379 R   0  0  0  0  0  0
   73.5564   51.0654   39.9852 H   0  0  0  0  0  0
   74.1880   51.9241   38.5497 H   0  0  0  0  0  0
   76.4340   51.6429   39.6486 H   0  0  0  0  0  0
   71.1838   55.0023   45.5267 C   0  0  0  0  0  0
   70.7867   55.9164   44.4057 C   0  0  0  0  0  0
   71.9122   56.0159   43.4191 C   0  0  0  0  0  0
   71.5152   56.9300   42.2981 C   0  0  0  0  0  0
   71.2103   58.2920   42.8477 C   0  0  0  0  0  0
   72.1927   54.7629   42.9134 O   0  0  0  0  0  0
   73.3462   54.6828   42.1601 C   0  0  0  0  0  0
   70.3659   54.9301   46.2436 H   0  0  0  0  0  0
   71.4054   54.0126   45.1273 H   0  0  0  0  0  0
   72.0686   55.4000   46.0238 H   0  0  0  0  0  0
   70.5652   56.9061   44.8051 H   0  0  0  0  0  0
   69.9019   55.5188   43.9086 H   0  0  0  0  0  0
   72.7970   56.4135   43.9161 H   0  0  0  0  0  0
   72.3330   57.0023   41.5811 H   0  0  0  0  0  0
   70.6304   56.5324   41.8010 H   0  0  0  0  0  0
   70.9217   58.9563   42.0331 H   0  0  0  0  0  0
   70.3924   58.2197   43.5646 H   0  0  0  0  0  0
   72.0951   58.6897   43.3447 H   0  0  0  0  0  0
   74.2008   54.9708   42.7723 H   0  0  0  0  0  0
   73.2690   55.3543   41.3050 H   0  0  0  0  0  0
  1  2  1  0  0  0
  1  7  2  0  0  0
  1 18  1  0  0  0
  2  3  2  0  0  0
  2 13  1  0  0  0
  3  4  1  0  0  0
  3 10  1  0  0  0
  4  5  1  0  0  0
  4 17  1  0  0  0
  5  6  2  0  0  0
  5  7  1  0  0  0
  7  8  1  0  0  0
  8  9  3  0  0  0
 10 11  1  0  0  0
 10 14  1  0  0  0
 10 28  1  0  0  0
 11 12  1  0  0  0
 11 15  1  0  0  0
 11 16  1  0  0  0
 12 13  1  0  0  0
 12 19  1  0  0  0
 12 20  1  0  0  0
 13 21  1  0  0  0
 22 23  1  0  0  0
 22 29  1  0  0  0
 22 30  1  0  0  0
 22 31  1  0  0  0
 23 24  1  0  0  0
 23 32  1  0  0  0
 23 33  1  0  0  0
 24 25  1  0  0  0
 24 27  1  0  0  0
 24 34  1  0  0  0
 25 26  1  0  0  0
 25 35  1  0  0  0
 25 36  1  0  0  0
 26 37  1  0  0  0
 26 38  1  0  0  0
 26 39  1  0  0  0
 27 28  1  0  0  0
 28 40  1  0  0  0
 28 41  1  0  0  0
M  END
> <b_m_subgroup_collapsed>
1

> <s_m_subgroup_title>
enumerate_140-out

> <s_m_subgroupid>
enumerate_140-out

$$$$
