17907-1
                    3D
 Schrodinger Suite 2024-3.
 38 40  0  0  1  0            999 V2000
   76.7152   51.2564   42.5117 C   0  0  0  0  0  0
   75.6469   51.8672   41.7091 C   0  0  0  0  0  0
   74.7156   52.5958   42.3599 C   0  0  0  0  0  0
   74.7624   52.7581   43.7471 N   0  0  0  0  0  0
   75.7023   52.2182   44.5484 C   0  0  0  0  0  0
   75.6665   52.3767   45.7684 O   0  0  0  0  0  0
   76.7303   51.4438   43.8559 C   0  0  0  0  0  0
   77.7066   50.8711   44.7216 C   0  0  0  0  0  0
   78.4723   50.4247   45.4646 N   0  0  0  0  0  0
   73.5301   53.2752   41.6754 C   0  0  2  0  0  0
   73.5536   53.2080   40.1403 C   0  0  0  0  0  0
   74.1629   51.9154   39.6394 C   0  0  0  0  0  0
   75.5862   51.7783   40.1806 N   0  0  0  0  0  0
   72.6664   52.6907   41.9933 H   0  0  0  0  0  0
   72.5491   53.3463   39.7375 H   0  0  0  0  0  0
   74.1721   53.9906   39.7152 H   0  0  0  0  0  0
   74.0228   53.3179   44.1572 H   0  0  0  0  0  0
   78.2659   50.0552   41.5379 R   0  0  0  0  0  0
   73.5564   51.0654   39.9852 H   0  0  0  0  0  0
   74.1880   51.9241   38.5497 H   0  0  0  0  0  0
   76.4340   51.6429   39.6486 H   0  0  0  0  0  0
   73.3511   54.6452   42.1472 N   0  0  0  0  0  0
   74.4518   55.4744   41.6650 C   0  0  0  0  0  0
   75.1891   56.0562   42.8345 C   0  0  0  0  0  0
   74.2506   56.8956   43.6498 C   0  0  0  0  0  0
   73.5507   57.5497   44.2986 N   0  0  0  0  0  0
   72.0864   55.1728   41.6433 C   0  0  0  0  0  0
   70.8177   54.8892   42.4153 C   0  0  0  0  0  0
   71.4024   56.2835   42.4078 C   0  0  0  0  0  0
   74.0558   56.2807   41.0475 H   0  0  0  0  0  0
   75.1337   54.8645   41.0725 H   0  0  0  0  0  0
   76.0108   56.6753   42.4745 H   0  0  0  0  0  0
   75.5850   55.2499   43.4520 H   0  0  0  0  0  0
   72.0485   55.1829   40.5519 H   0  0  0  0  0  0
   69.8948   54.7014   41.8624 H   0  0  0  0  0  0
   70.8787   54.2967   43.3307 H   0  0  0  0  0  0
   71.8713   56.6637   43.3180 H   0  0  0  0  0  0
   70.8874   57.0684   41.8497 H   0  0  0  0  0  0
  1  2  1  0  0  0
  1  7  2  0  0  0
  1 18  1  0  0  0
  2  3  2  0  0  0
  2 13  1  0  0  0
  3  4  1  0  0  0
  3 10  1  0  0  0
  4  5  1  0  0  0
  4 17  1  0  0  0
  5  6  2  0  0  0
  5  7  1  0  0  0
  7  8  1  0  0  0
  8  9  3  0  0  0
 10 11  1  0  0  0
 10 14  1  0  0  0
 10 22  1  0  0  0
 11 12  1  0  0  0
 11 15  1  0  0  0
 11 16  1  0  0  0
 12 13  1  0  0  0
 12 19  1  0  0  0
 12 20  1  0  0  0
 13 21  1  0  0  0
 22 23  1  0  0  0
 22 27  1  0  0  0
 23 24  1  0  0  0
 23 30  1  0  0  0
 23 31  1  0  0  0
 24 25  1  0  0  0
 24 32  1  0  0  0
 24 33  1  0  0  0
 25 26  3  0  0  0
 27 28  1  0  0  0
 27 29  1  0  0  0
 27 34  1  0  0  0
 28 29  1  0  0  0
 28 35  1  0  0  0
 28 36  1  0  0  0
 29 37  1  0  0  0
 29 38  1  0  0  0
M  END
> <b_m_subgroup_collapsed>
1

> <s_m_subgroup_title>
enumerate_140-out

> <s_m_subgroupid>
enumerate_140-out

$$$$
