24810-2
                    3D
 Schrodinger Suite 2024-3.
 48 50  0  0  1  0            999 V2000
   76.7152   51.2564   42.5117 C   0  0  0  0  0  0
   75.6469   51.8672   41.7091 C   0  0  0  0  0  0
   74.7156   52.5958   42.3599 C   0  0  0  0  0  0
   74.7624   52.7581   43.7471 N   0  0  0  0  0  0
   75.7023   52.2182   44.5484 C   0  0  0  0  0  0
   75.6665   52.3767   45.7684 O   0  0  0  0  0  0
   76.7303   51.4438   43.8559 C   0  0  0  0  0  0
   77.7066   50.8711   44.7216 C   0  0  0  0  0  0
   78.4723   50.4247   45.4646 N   0  0  0  0  0  0
   73.5301   53.2752   41.6754 C   0  0  2  0  0  0
   73.5536   53.2080   40.1403 C   0  0  0  0  0  0
   74.1629   51.9154   39.6394 C   0  0  0  0  0  0
   75.5862   51.7783   40.1806 N   0  0  0  0  0  0
   72.6664   52.6907   41.9933 H   0  0  0  0  0  0
   72.5491   53.3463   39.7375 H   0  0  0  0  0  0
   74.1721   53.9906   39.7152 H   0  0  0  0  0  0
   74.0228   53.3179   44.1572 H   0  0  0  0  0  0
   78.2659   50.0552   41.5379 R   0  0  0  0  0  0
   73.5564   51.0654   39.9852 H   0  0  0  0  0  0
   74.1880   51.9241   38.5497 H   0  0  0  0  0  0
   76.4340   51.6429   39.6486 H   0  0  0  0  0  0
   73.3511   54.6452   42.1472 N   0  0  0  0  0  0
   72.1794   55.2347   42.3869 C   0  0  0  0  0  0
   71.1027   54.6666   42.2298 O   0  0  0  0  0  0
   72.3523   56.6472   42.8612 C   0  0  1  0  0  0
   71.6792   57.6094   41.8619 C   0  0  0  0  0  0
   70.1454   57.4499   41.8591 C   0  0  0  0  0  0
   69.5533   57.5908   43.2759 C   0  0  0  0  0  0
   70.2265   56.6285   44.2753 C   0  0  0  0  0  0
   71.7602   56.7880   44.2781 C   0  0  0  0  0  0
   72.3803   55.7775   45.1969 C   0  0  0  0  0  0
   72.1206   58.1323   44.8375 C   0  0  0  0  0  0
   73.4285   56.8269   42.8862 H   0  0  0  0  0  0
   71.9364   58.6386   42.1197 H   0  0  0  0  0  0
   72.0742   57.4426   40.8583 H   0  0  0  0  0  0
   69.6943   58.1852   41.1906 H   0  0  0  0  0  0
   69.8832   56.4715   41.4519 H   0  0  0  0  0  0
   69.6792   58.6188   43.6212 H   0  0  0  0  0  0
   68.4772   57.4111   43.2509 H   0  0  0  0  0  0
   69.9692   55.5994   44.0174 H   0  0  0  0  0  0
   69.8314   56.7953   45.2788 H   0  0  0  0  0  0
   71.9555   55.8851   46.1950 H   0  0  0  0  0  0
   72.1785   54.7739   44.8224 H   0  0  0  0  0  0
   73.4573   55.9391   45.2410 H   0  0  0  0  0  0
   71.7025   58.2330   45.8391 H   0  0  0  0  0  0
   73.2054   58.2270   44.8854 H   0  0  0  0  0  0
   71.7157   58.9139   44.1946 H   0  0  0  0  0  0
   74.2581   55.0744   42.2626 H   0  0  0  0  0  0
  1  2  1  0  0  0
  1  7  2  0  0  0
  1 18  1  0  0  0
  2  3  2  0  0  0
  2 13  1  0  0  0
  3  4  1  0  0  0
  3 10  1  0  0  0
  4  5  1  0  0  0
  4 17  1  0  0  0
  5  6  2  0  0  0
  5  7  1  0  0  0
  7  8  1  0  0  0
  8  9  3  0  0  0
 10 11  1  0  0  0
 10 14  1  0  0  0
 10 22  1  0  0  0
 11 12  1  0  0  0
 11 15  1  0  0  0
 11 16  1  0  0  0
 12 13  1  0  0  0
 12 19  1  0  0  0
 12 20  1  0  0  0
 13 21  1  0  0  0
 22 23  1  0  0  0
 22 48  1  0  0  0
 23 24  2  0  0  0
 23 25  1  0  0  0
 25 26  1  0  0  0
 25 30  1  0  0  0
 25 33  1  0  0  0
 26 27  1  0  0  0
 26 34  1  0  0  0
 26 35  1  0  0  0
 27 28  1  0  0  0
 27 36  1  0  0  0
 27 37  1  0  0  0
 28 29  1  0  0  0
 28 38  1  0  0  0
 28 39  1  0  0  0
 29 30  1  0  0  0
 29 40  1  0  0  0
 29 41  1  0  0  0
 30 31  1  0  0  0
 30 32  1  0  0  0
 31 42  1  0  0  0
 31 43  1  0  0  0
 31 44  1  0  0  0
 32 45  1  0  0  0
 32 46  1  0  0  0
 32 47  1  0  0  0
M  END
> <b_m_subgroup_collapsed>
1

> <s_m_subgroup_title>
enumerate_139-out

> <s_m_subgroupid>
enumerate_139-out

$$$$
