4504-2
                    3D
 Schrodinger Suite 2024-3.
 41 42  0  0  1  0            999 V2000
   76.7152   51.2564   42.5117 C   0  0  0  0  0  0
   75.6469   51.8672   41.7091 C   0  0  0  0  0  0
   74.7156   52.5958   42.3599 C   0  0  0  0  0  0
   74.7624   52.7581   43.7471 N   0  0  0  0  0  0
   75.7023   52.2182   44.5484 C   0  0  0  0  0  0
   75.6665   52.3767   45.7684 O   0  0  0  0  0  0
   76.7303   51.4438   43.8559 C   0  0  0  0  0  0
   77.7066   50.8711   44.7216 C   0  0  0  0  0  0
   78.4723   50.4247   45.4646 N   0  0  0  0  0  0
   73.5301   53.2752   41.6754 C   0  0  2  0  0  0
   73.5536   53.2080   40.1403 C   0  0  0  0  0  0
   74.1629   51.9154   39.6394 C   0  0  0  0  0  0
   75.5862   51.7783   40.1806 N   0  0  0  0  0  0
   72.6664   52.6907   41.9933 H   0  0  0  0  0  0
   72.5491   53.3463   39.7375 H   0  0  0  0  0  0
   74.1721   53.9906   39.7152 H   0  0  0  0  0  0
   74.0228   53.3179   44.1572 H   0  0  0  0  0  0
   78.2659   50.0552   41.5379 R   0  0  0  0  0  0
   73.5564   51.0654   39.9852 H   0  0  0  0  0  0
   74.1880   51.9241   38.5497 H   0  0  0  0  0  0
   76.4340   51.6429   39.6486 H   0  0  0  0  0  0
   70.0679   56.4508   45.8600 C   0  0  0  0  0  0
   71.2037   56.0861   44.9507 C   0  0  0  0  0  0
   71.2165   57.0119   43.7705 C   0  0  0  0  0  0
   72.3523   56.6472   42.8612 C   0  0  2  0  0  0
   72.3651   57.5730   41.6811 C   0  0  0  0  0  0
   72.1794   55.2347   42.3869 C   0  0  0  0  0  0
   71.1027   54.6666   42.2298 O   0  0  0  0  0  0
   73.3511   54.6452   42.1472 N   0  0  0  0  0  0
   70.0586   55.7780   46.7176 H   0  0  0  0  0  0
   69.1261   56.3621   45.3185 H   0  0  0  0  0  0
   70.1935   57.4771   46.2047 H   0  0  0  0  0  0
   72.1455   56.1747   45.4922 H   0  0  0  0  0  0
   71.0781   55.0597   44.6060 H   0  0  0  0  0  0
   70.2747   56.9232   43.2290 H   0  0  0  0  0  0
   71.3421   58.0383   44.1153 H   0  0  0  0  0  0
   73.2941   56.7359   43.4028 H   0  0  0  0  0  0
   73.1905   57.3080   41.0203 H   0  0  0  0  0  0
   71.4233   57.4843   41.1395 H   0  0  0  0  0  0
   72.4908   58.5994   42.0258 H   0  0  0  0  0  0
   74.2581   55.0744   42.2626 H   0  0  0  0  0  0
  1  2  1  0  0  0
  1  7  2  0  0  0
  1 18  1  0  0  0
  2  3  2  0  0  0
  2 13  1  0  0  0
  3  4  1  0  0  0
  3 10  1  0  0  0
  4  5  1  0  0  0
  4 17  1  0  0  0
  5  6  2  0  0  0
  5  7  1  0  0  0
  7  8  1  0  0  0
  8  9  3  0  0  0
 10 11  1  0  0  0
 10 14  1  0  0  0
 10 29  1  0  0  0
 11 12  1  0  0  0
 11 15  1  0  0  0
 11 16  1  0  0  0
 12 13  1  0  0  0
 12 19  1  0  0  0
 12 20  1  0  0  0
 13 21  1  0  0  0
 22 23  1  0  0  0
 22 30  1  0  0  0
 22 31  1  0  0  0
 22 32  1  0  0  0
 23 24  1  0  0  0
 23 33  1  0  0  0
 23 34  1  0  0  0
 24 25  1  0  0  0
 24 35  1  0  0  0
 24 36  1  0  0  0
 25 26  1  0  0  0
 25 27  1  0  0  0
 25 37  1  0  0  0
 26 38  1  0  0  0
 26 39  1  0  0  0
 26 40  1  0  0  0
 27 28  2  0  0  0
 27 29  1  0  0  0
 29 41  1  0  0  0
M  END
> <b_m_subgroup_collapsed>
1

> <s_m_subgroup_title>
enumerate_139-out

> <s_m_subgroupid>
enumerate_139-out

$$$$
