45112-1
                    3D
 Schrodinger Suite 2024-3.
 45 48  0  0  1  0            999 V2000
   76.7152   51.2564   42.5117 C   0  0  0  0  0  0
   75.6469   51.8672   41.7091 C   0  0  0  0  0  0
   74.7156   52.5958   42.3599 C   0  0  0  0  0  0
   74.7624   52.7581   43.7471 N   0  0  0  0  0  0
   75.7023   52.2182   44.5484 C   0  0  0  0  0  0
   75.6665   52.3767   45.7684 O   0  0  0  0  0  0
   76.7303   51.4438   43.8559 C   0  0  0  0  0  0
   77.7066   50.8711   44.7216 C   0  0  0  0  0  0
   78.4723   50.4247   45.4646 N   0  0  0  0  0  0
   73.5301   53.2752   41.6754 C   0  0  2  0  0  0
   73.5536   53.2080   40.1403 C   0  0  0  0  0  0
   74.1629   51.9154   39.6394 C   0  0  0  0  0  0
   75.5862   51.7783   40.1806 N   0  0  0  0  0  0
   72.6664   52.6907   41.9933 H   0  0  0  0  0  0
   72.5491   53.3463   39.7375 H   0  0  0  0  0  0
   74.1721   53.9906   39.7152 H   0  0  0  0  0  0
   74.0228   53.3179   44.1572 H   0  0  0  0  0  0
   78.2659   50.0552   41.5379 R   0  0  0  0  0  0
   73.5564   51.0654   39.9852 H   0  0  0  0  0  0
   74.1880   51.9241   38.5497 H   0  0  0  0  0  0
   76.4340   51.6429   39.6486 H   0  0  0  0  0  0
   73.3462   54.6828   42.1601 C   0  0  1  0  0  0
   72.0437   54.7068   42.9934 C   0  0  0  0  0  0
   71.5605   56.1223   43.3749 C   0  0  0  0  0  0
   71.6906   57.1455   42.2264 C   0  0  0  0  0  0
   73.0054   57.0326   41.4198 C   0  0  1  0  0  0
   74.2749   57.5022   42.1678 C   0  0  0  0  0  0
   74.7267   56.5601   43.3041 C   0  0  0  0  0  0
   74.6280   55.0639   42.9370 C   0  0  0  0  0  0
   73.1937   55.5904   40.9332 C   0  0  0  0  0  0
   71.2583   54.2274   42.4074 H   0  0  0  0  0  0
   72.1559   54.0969   43.8906 H   0  0  0  0  0  0
   72.0925   56.4757   44.2538 H   0  0  0  0  0  0
   70.5194   56.0724   43.6954 H   0  0  0  0  0  0
   71.5687   58.1577   42.6135 H   0  0  0  0  0  0
   70.8579   56.9904   41.5390 H   0  0  0  0  0  0
   72.8971   57.6728   40.5430 H   0  0  0  0  0  0
   75.0874   57.5731   41.4434 H   0  0  0  0  0  0
   74.1356   58.5123   42.5544 H   0  0  0  0  0  0
   75.7554   56.7957   43.5785 H   0  0  0  0  0  0
   74.1576   56.7628   44.2071 H   0  0  0  0  0  0
   74.7228   54.4530   43.8353 H   0  0  0  0  0  0
   75.4880   54.8103   42.3158 H   0  0  0  0  0  0
   74.0719   55.5153   40.2903 H   0  0  0  0  0  0
   72.3416   55.2764   40.3286 H   0  0  0  0  0  0
  1  2  1  0  0  0
  1  7  2  0  0  0
  1 18  1  0  0  0
  2  3  2  0  0  0
  2 13  1  0  0  0
  3  4  1  0  0  0
  3 10  1  0  0  0
  4  5  1  0  0  0
  4 17  1  0  0  0
  5  6  2  0  0  0
  5  7  1  0  0  0
  7  8  1  0  0  0
  8  9  3  0  0  0
 10 11  1  0  0  0
 10 14  1  0  0  0
 10 22  1  0  0  0
 11 12  1  0  0  0
 11 15  1  0  0  0
 11 16  1  0  0  0
 12 13  1  0  0  0
 12 19  1  0  0  0
 12 20  1  0  0  0
 13 21  1  0  0  0
 22 23  1  0  0  0
 22 29  1  0  0  0
 22 30  1  0  0  0
 23 24  1  0  0  0
 23 31  1  0  0  0
 23 32  1  0  0  0
 24 25  1  0  0  0
 24 33  1  0  0  0
 24 34  1  0  0  0
 25 26  1  0  0  0
 25 35  1  0  0  0
 25 36  1  0  0  0
 26 27  1  0  0  0
 26 30  1  0  0  0
 26 37  1  0  0  0
 27 28  1  0  0  0
 27 38  1  0  0  0
 27 39  1  0  0  0
 28 29  1  0  0  0
 28 40  1  0  0  0
 28 41  1  0  0  0
 29 42  1  0  0  0
 29 43  1  0  0  0
 30 44  1  0  0  0
 30 45  1  0  0  0
M  END
> <b_m_subgroup_collapsed>
1

> <s_m_subgroup_title>
enumerate_139-out

> <s_m_subgroupid>
enumerate_139-out

$$$$
