7192-2
                    3D
 Schrodinger Suite 2024-3.
 43 45  0  0  1  0            999 V2000
   76.7152   51.2564   42.5117 C   0  0  0  0  0  0
   75.6469   51.8672   41.7091 C   0  0  0  0  0  0
   74.7156   52.5958   42.3599 C   0  0  0  0  0  0
   74.7624   52.7581   43.7471 N   0  0  0  0  0  0
   75.7023   52.2182   44.5484 C   0  0  0  0  0  0
   75.6665   52.3767   45.7684 O   0  0  0  0  0  0
   76.7303   51.4438   43.8559 C   0  0  0  0  0  0
   77.7066   50.8711   44.7216 C   0  0  0  0  0  0
   78.4723   50.4247   45.4646 N   0  0  0  0  0  0
   73.5301   53.2752   41.6754 C   0  0  2  0  0  0
   73.5536   53.2080   40.1403 C   0  0  0  0  0  0
   74.1629   51.9154   39.6394 C   0  0  0  0  0  0
   75.5862   51.7783   40.1806 N   0  0  0  0  0  0
   72.6664   52.6907   41.9933 H   0  0  0  0  0  0
   72.5491   53.3463   39.7375 H   0  0  0  0  0  0
   74.1721   53.9906   39.7152 H   0  0  0  0  0  0
   74.0228   53.3179   44.1572 H   0  0  0  0  0  0
   78.2659   50.0552   41.5379 R   0  0  0  0  0  0
   73.5564   51.0654   39.9852 H   0  0  0  0  0  0
   74.1880   51.9241   38.5497 H   0  0  0  0  0  0
   76.4340   51.6429   39.6486 H   0  0  0  0  0  0
   69.3266   58.2924   40.4200 C   0  0  0  0  0  0
   70.6785   57.6592   40.5665 C   0  0  0  0  0  0
   71.4976   57.5389   39.6508 O   0  0  0  0  0  0
   70.9012   57.2316   41.8233 N   0  0  0  0  0  0
   69.9086   57.3865   42.8894 C   0  0  0  0  0  0
   70.4812   56.5149   44.0058 C   0  0  0  0  0  0
   71.9865   56.5538   43.7794 C   0  0  0  0  0  0
   72.1385   56.5754   42.2595 C   0  0  1  0  0  0
   72.1951   55.1818   41.7075 C   0  0  0  0  0  0
   73.3609   54.5702   42.1213 O   0  0  0  0  0  0
   68.8085   58.2689   41.3787 H   0  0  0  0  0  0
   69.4429   59.3263   40.0950 H   0  0  0  0  0  0
   68.7459   57.7420   39.6797 H   0  0  0  0  0  0
   68.9070   57.0688   42.5905 H   0  0  0  0  0  0
   69.8599   58.4318   43.2028 H   0  0  0  0  0  0
   70.1136   55.4919   43.9006 H   0  0  0  0  0  0
   70.1926   56.8640   44.9986 H   0  0  0  0  0  0
   72.5067   55.7122   44.2396 H   0  0  0  0  0  0
   72.4053   57.4682   44.2048 H   0  0  0  0  0  0
   73.0355   57.1096   41.9383 H   0  0  0  0  0  0
   72.1722   55.2212   40.6185 H   0  0  0  0  0  0
   71.3384   54.6129   42.0686 H   0  0  0  0  0  0
  1  2  1  0  0  0
  1  7  2  0  0  0
  1 18  1  0  0  0
  2  3  2  0  0  0
  2 13  1  0  0  0
  3  4  1  0  0  0
  3 10  1  0  0  0
  4  5  1  0  0  0
  4 17  1  0  0  0
  5  6  2  0  0  0
  5  7  1  0  0  0
  7  8  1  0  0  0
  8  9  3  0  0  0
 10 11  1  0  0  0
 10 14  1  0  0  0
 10 31  1  0  0  0
 11 12  1  0  0  0
 11 15  1  0  0  0
 11 16  1  0  0  0
 12 13  1  0  0  0
 12 19  1  0  0  0
 12 20  1  0  0  0
 13 21  1  0  0  0
 22 23  1  0  0  0
 22 32  1  0  0  0
 22 33  1  0  0  0
 22 34  1  0  0  0
 23 24  2  0  0  0
 23 25  1  0  0  0
 25 26  1  0  0  0
 25 29  1  0  0  0
 26 27  1  0  0  0
 26 35  1  0  0  0
 26 36  1  0  0  0
 27 28  1  0  0  0
 27 37  1  0  0  0
 27 38  1  0  0  0
 28 29  1  0  0  0
 28 39  1  0  0  0
 28 40  1  0  0  0
 29 30  1  0  0  0
 29 41  1  0  0  0
 30 31  1  0  0  0
 30 42  1  0  0  0
 30 43  1  0  0  0
M  END
> <b_m_subgroup_collapsed>
1

> <s_m_subgroup_title>
enumerate_140-out

> <s_m_subgroupid>
enumerate_140-out

$$$$
