27275-1
                    3D
 Schrodinger Suite 2024-3.
 45 47  0  0  1  0            999 V2000
   76.7152   51.2564   42.5117 C   0  0  0  0  0  0
   75.6469   51.8672   41.7091 C   0  0  0  0  0  0
   74.7156   52.5958   42.3599 C   0  0  0  0  0  0
   74.7624   52.7581   43.7471 N   0  0  0  0  0  0
   75.7023   52.2182   44.5484 C   0  0  0  0  0  0
   75.6665   52.3767   45.7684 O   0  0  0  0  0  0
   76.7303   51.4438   43.8559 C   0  0  0  0  0  0
   77.7066   50.8711   44.7216 C   0  0  0  0  0  0
   78.4723   50.4247   45.4646 N   0  0  0  0  0  0
   73.5301   53.2752   41.6754 C   0  0  2  0  0  0
   73.5536   53.2080   40.1403 C   0  0  0  0  0  0
   74.1629   51.9154   39.6394 C   0  0  0  0  0  0
   75.5862   51.7783   40.1806 N   0  0  0  0  0  0
   72.6664   52.6907   41.9933 H   0  0  0  0  0  0
   72.5491   53.3463   39.7375 H   0  0  0  0  0  0
   74.1721   53.9906   39.7152 H   0  0  0  0  0  0
   74.0228   53.3179   44.1572 H   0  0  0  0  0  0
   78.2659   50.0552   41.5379 R   0  0  0  0  0  0
   73.5564   51.0654   39.9852 H   0  0  0  0  0  0
   74.1880   51.9241   38.5497 H   0  0  0  0  0  0
   76.4340   51.6429   39.6486 H   0  0  0  0  0  0
   70.0175   53.5712   44.1533 C   0  0  0  0  0  0
   70.9780   54.3547   43.5468 O   0  0  0  0  0  0
   70.9593   54.3367   42.1671 C   0  0  0  0  0  0
   72.0476   55.2248   41.6407 C   0  0  0  0  0  0
   73.3462   54.6828   42.1601 C   0  0  0  0  0  0
   71.7967   56.6653   42.0930 C   0  0  0  0  0  0
   70.8717   57.2293   41.0162 C   0  0  0  0  0  0
   71.4144   56.6283   39.7174 C   0  0  0  0  0  0
   71.9915   55.2565   40.1043 C   0  0  0  0  0  0
   70.1134   53.6518   45.2361 H   0  0  0  0  0  0
   69.0271   53.9107   43.8501 H   0  0  0  0  0  0
   70.1532   52.5322   43.8529 H   0  0  0  0  0  0
   69.9935   54.6962   41.8120 H   0  0  0  0  0  0
   71.1196   53.3178   41.8148 H   0  0  0  0  0  0
   73.3343   54.6931   43.2500 H   0  0  0  0  0  0
   74.1681   55.3014   41.7998 H   0  0  0  0  0  0
   71.3668   56.7252   43.0944 H   0  0  0  0  0  0
   72.7359   57.2226   42.1069 H   0  0  0  0  0  0
   69.8484   56.8885   41.1879 H   0  0  0  0  0  0
   70.8542   58.3206   41.0021 H   0  0  0  0  0  0
   70.6497   56.5589   38.9417 H   0  0  0  0  0  0
   72.2108   57.2644   39.3252 H   0  0  0  0  0  0
   72.9838   55.1223   39.6692 H   0  0  0  0  0  0
   71.3672   54.4440   39.7274 H   0  0  0  0  0  0
  1  2  1  0  0  0
  1  7  2  0  0  0
  1 18  1  0  0  0
  2  3  2  0  0  0
  2 13  1  0  0  0
  3  4  1  0  0  0
  3 10  1  0  0  0
  4  5  1  0  0  0
  4 17  1  0  0  0
  5  6  2  0  0  0
  5  7  1  0  0  0
  7  8  1  0  0  0
  8  9  3  0  0  0
 10 11  1  0  0  0
 10 14  1  0  0  0
 10 26  1  0  0  0
 11 12  1  0  0  0
 11 15  1  0  0  0
 11 16  1  0  0  0
 12 13  1  0  0  0
 12 19  1  0  0  0
 12 20  1  0  0  0
 13 21  1  0  0  0
 22 23  1  0  0  0
 22 31  1  0  0  0
 22 32  1  0  0  0
 22 33  1  0  0  0
 23 24  1  0  0  0
 24 25  1  0  0  0
 24 34  1  0  0  0
 24 35  1  0  0  0
 25 26  1  0  0  0
 25 27  1  0  0  0
 25 30  1  0  0  0
 26 36  1  0  0  0
 26 37  1  0  0  0
 27 28  1  0  0  0
 27 38  1  0  0  0
 27 39  1  0  0  0
 28 29  1  0  0  0
 28 40  1  0  0  0
 28 41  1  0  0  0
 29 30  1  0  0  0
 29 42  1  0  0  0
 29 43  1  0  0  0
 30 44  1  0  0  0
 30 45  1  0  0  0
M  END
> <b_m_subgroup_collapsed>
1

> <s_m_subgroup_title>
enumerate_140-out

> <s_m_subgroupid>
enumerate_140-out

$$$$
