18602-1
                    3D
 Schrodinger Suite 2024-3.
 40 42  0  0  1  0            999 V2000
   76.7152   51.2564   42.5117 C   0  0  0  0  0  0
   75.6469   51.8672   41.7091 C   0  0  0  0  0  0
   74.7156   52.5958   42.3599 C   0  0  0  0  0  0
   74.7624   52.7581   43.7471 N   0  0  0  0  0  0
   75.7023   52.2182   44.5484 C   0  0  0  0  0  0
   75.6665   52.3767   45.7684 O   0  0  0  0  0  0
   76.7303   51.4438   43.8559 C   0  0  0  0  0  0
   77.7066   50.8711   44.7216 C   0  0  0  0  0  0
   78.4723   50.4247   45.4646 N   0  0  0  0  0  0
   73.5301   53.2752   41.6754 C   0  0  2  0  0  0
   73.5536   53.2080   40.1403 C   0  0  0  0  0  0
   74.1629   51.9154   39.6394 C   0  0  0  0  0  0
   75.5862   51.7783   40.1806 N   0  0  0  0  0  0
   72.6664   52.6907   41.9933 H   0  0  0  0  0  0
   72.5491   53.3463   39.7375 H   0  0  0  0  0  0
   74.1721   53.9906   39.7152 H   0  0  0  0  0  0
   74.0228   53.3179   44.1572 H   0  0  0  0  0  0
   78.2659   50.0552   41.5379 R   0  0  0  0  0  0
   73.5564   51.0654   39.9852 H   0  0  0  0  0  0
   74.1880   51.9241   38.5497 H   0  0  0  0  0  0
   76.4340   51.6429   39.6486 H   0  0  0  0  0  0
   73.3462   54.6828   42.1601 C   0  0  0  0  0  0
   73.2400   55.6069   40.9834 C   0  0  0  0  0  0
   74.3845   56.1926   40.4428 C   0  0  0  0  0  0
   75.7360   55.9084   41.0281 C   0  0  0  0  0  0
   74.2512   57.0463   39.3499 C   0  0  0  0  0  0
   72.9739   57.2790   38.8418 C   0  0  0  0  0  0
   71.8510   56.7152   39.3585 N   0  0  0  0  0  0
   71.9947   55.8858   40.4228 C   0  0  0  0  0  0
   70.7491   55.2683   40.9860 C   0  0  0  0  0  0
   72.4351   54.7460   42.7551 H   0  0  0  0  0  0
   74.2008   54.9708   42.7723 H   0  0  0  0  0  0
   76.4960   56.4558   40.4705 H   0  0  0  0  0  0
   75.7537   56.2233   42.0715 H   0  0  0  0  0  0
   75.9406   54.8394   40.9678 H   0  0  0  0  0  0
   75.1169   57.5179   38.9051 H   0  0  0  0  0  0
   72.8409   57.9384   37.9924 H   0  0  0  0  0  0
   71.0097   54.6302   41.8304 H   0  0  0  0  0  0
   70.0728   56.0550   41.3204 H   0  0  0  0  0  0
   70.2597   54.6712   40.2167 H   0  0  0  0  0  0
  1  2  1  0  0  0
  1  7  2  0  0  0
  1 18  1  0  0  0
  2  3  2  0  0  0
  2 13  1  0  0  0
  3  4  1  0  0  0
  3 10  1  0  0  0
  4  5  1  0  0  0
  4 17  1  0  0  0
  5  6  2  0  0  0
  5  7  1  0  0  0
  7  8  1  0  0  0
  8  9  3  0  0  0
 10 11  1  0  0  0
 10 14  1  0  0  0
 10 22  1  0  0  0
 11 12  1  0  0  0
 11 15  1  0  0  0
 11 16  1  0  0  0
 12 13  1  0  0  0
 12 19  1  0  0  0
 12 20  1  0  0  0
 13 21  1  0  0  0
 22 23  1  0  0  0
 22 31  1  0  0  0
 22 32  1  0  0  0
 23 24  2  0  0  0
 23 29  1  0  0  0
 24 25  1  0  0  0
 24 26  1  0  0  0
 25 33  1  0  0  0
 25 34  1  0  0  0
 25 35  1  0  0  0
 26 27  2  0  0  0
 26 36  1  0  0  0
 27 28  1  0  0  0
 27 37  1  0  0  0
 28 29  2  0  0  0
 29 30  1  0  0  0
 30 38  1  0  0  0
 30 39  1  0  0  0
 30 40  1  0  0  0
M  END
> <b_m_subgroup_collapsed>
1

> <s_m_subgroup_title>
enumerate_140-out

> <s_m_subgroupid>
enumerate_140-out

$$$$
