14376-1
                    3D
 Schrodinger Suite 2024-3.
 44 48  0  0  1  0            999 V2000
   76.7152   51.2564   42.5117 C   0  0  0  0  0  0
   75.6469   51.8672   41.7091 C   0  0  0  0  0  0
   74.7156   52.5958   42.3599 C   0  0  0  0  0  0
   74.7624   52.7581   43.7471 N   0  0  0  0  0  0
   75.7023   52.2182   44.5484 C   0  0  0  0  0  0
   75.6665   52.3767   45.7684 O   0  0  0  0  0  0
   76.7303   51.4438   43.8559 C   0  0  0  0  0  0
   77.7066   50.8711   44.7216 C   0  0  0  0  0  0
   78.4723   50.4247   45.4646 N   0  0  0  0  0  0
   73.5301   53.2752   41.6754 C   0  0  2  0  0  0
   73.5536   53.2080   40.1403 C   0  0  0  0  0  0
   74.1629   51.9154   39.6394 C   0  0  0  0  0  0
   75.5862   51.7783   40.1806 N   0  0  0  0  0  0
   72.6664   52.6907   41.9933 H   0  0  0  0  0  0
   72.5491   53.3463   39.7375 H   0  0  0  0  0  0
   74.1721   53.9906   39.7152 H   0  0  0  0  0  0
   74.0228   53.3179   44.1572 H   0  0  0  0  0  0
   78.2659   50.0552   41.5379 R   0  0  0  0  0  0
   73.5564   51.0654   39.9852 H   0  0  0  0  0  0
   74.1880   51.9241   38.5497 H   0  0  0  0  0  0
   76.4340   51.6429   39.6486 H   0  0  0  0  0  0
   73.3462   54.6828   42.1601 C   0  0  1  0  0  0
   72.0702   54.7764   43.0199 C   0  0  0  0  0  0
   71.9396   56.2155   43.5482 C   0  0  2  0  0  0
   71.8564   57.2061   42.3620 C   0  0  0  0  0  0
   73.1257   57.0808   41.4853 C   0  0  1  0  0  0
   74.3766   57.3802   42.3297 C   0  0  0  0  0  0
   74.4350   56.3730   43.4952 C   0  0  1  0  0  0
   73.1902   56.5145   44.3932 C   0  0  0  0  0  0
   74.4804   55.0413   42.9627 O   0  0  0  0  0  0
   73.2569   55.6419   40.9567 C   0  0  0  0  0  0
   71.1938   54.5016   42.4320 H   0  0  0  0  0  0
   72.1251   54.0681   43.8476 H   0  0  0  0  0  0
   71.0459   56.3025   44.1669 H   0  0  0  0  0  0
   71.7528   58.2276   42.7309 H   0  0  0  0  0  0
   70.9653   57.0055   41.7655 H   0  0  0  0  0  0
   73.0686   57.7782   40.6490 H   0  0  0  0  0  0
   75.2779   57.2992   41.7209 H   0  0  0  0  0  0
   74.3480   58.4018   42.7102 H   0  0  0  0  0  0
   75.3367   56.5421   44.0845 H   0  0  0  0  0  0
   73.1375   57.5185   44.8158 H   0  0  0  0  0  0
   73.2572   55.8247   45.2354 H   0  0  0  0  0  0
   74.1465   55.5425   40.3335 H   0  0  0  0  0  0
   72.4047   55.3844   40.3268 H   0  0  0  0  0  0
  1  2  1  0  0  0
  1  7  2  0  0  0
  1 18  1  0  0  0
  2  3  2  0  0  0
  2 13  1  0  0  0
  3  4  1  0  0  0
  3 10  1  0  0  0
  4  5  1  0  0  0
  4 17  1  0  0  0
  5  6  2  0  0  0
  5  7  1  0  0  0
  7  8  1  0  0  0
  8  9  3  0  0  0
 10 11  1  0  0  0
 10 14  1  0  0  0
 10 22  1  0  0  0
 11 12  1  0  0  0
 11 15  1  0  0  0
 11 16  1  0  0  0
 12 13  1  0  0  0
 12 19  1  0  0  0
 12 20  1  0  0  0
 13 21  1  0  0  0
 22 23  1  0  0  0
 22 30  1  0  0  0
 22 31  1  0  0  0
 23 24  1  0  0  0
 23 32  1  0  0  0
 23 33  1  0  0  0
 24 25  1  0  0  0
 24 29  1  0  0  0
 24 34  1  0  0  0
 25 26  1  0  0  0
 25 35  1  0  0  0
 25 36  1  0  0  0
 26 27  1  0  0  0
 26 31  1  0  0  0
 26 37  1  0  0  0
 27 28  1  0  0  0
 27 38  1  0  0  0
 27 39  1  0  0  0
 28 29  1  0  0  0
 28 30  1  0  0  0
 28 40  1  0  0  0
 29 41  1  0  0  0
 29 42  1  0  0  0
 31 43  1  0  0  0
 31 44  1  0  0  0
M  END
> <b_m_subgroup_collapsed>
1

> <s_m_subgroup_title>
enumerate_139-out

> <s_m_subgroupid>
enumerate_139-out

$$$$
