39328-3
                    3D
 Schrodinger Suite 2024-3.
 45 48  0  0  1  0            999 V2000
   76.7152   51.2564   42.5117 C   0  0  0  0  0  0
   75.6469   51.8672   41.7091 C   0  0  0  0  0  0
   74.7156   52.5958   42.3599 C   0  0  0  0  0  0
   74.7624   52.7581   43.7471 N   0  0  0  0  0  0
   75.7023   52.2182   44.5484 C   0  0  0  0  0  0
   75.6665   52.3767   45.7684 O   0  0  0  0  0  0
   76.7303   51.4438   43.8559 C   0  0  0  0  0  0
   77.7066   50.8711   44.7216 C   0  0  0  0  0  0
   78.4723   50.4247   45.4646 N   0  0  0  0  0  0
   73.5301   53.2752   41.6754 C   0  0  2  0  0  0
   73.5536   53.2080   40.1403 C   0  0  0  0  0  0
   74.1629   51.9154   39.6394 C   0  0  0  0  0  0
   75.5862   51.7783   40.1806 N   0  0  0  0  0  0
   72.6664   52.6907   41.9933 H   0  0  0  0  0  0
   72.5491   53.3463   39.7375 H   0  0  0  0  0  0
   74.1721   53.9906   39.7152 H   0  0  0  0  0  0
   74.0228   53.3179   44.1572 H   0  0  0  0  0  0
   78.2659   50.0552   41.5379 R   0  0  0  0  0  0
   73.5564   51.0654   39.9852 H   0  0  0  0  0  0
   74.1880   51.9241   38.5497 H   0  0  0  0  0  0
   76.4340   51.6429   39.6486 H   0  0  0  0  0  0
   73.3462   54.6828   42.1601 C   0  0  2  0  0  0
   72.0618   55.3009   41.5775 C   0  0  1  0  0  0
   71.7808   56.6422   42.2798 C   0  0  0  0  0  0
   72.8844   57.5583   41.7164 C   0  0  0  0  0  0
   73.6516   56.6206   40.7660 C   0  0  2  0  0  0
   72.5290   55.7582   40.2005 C   0  0  0  0  0  0
   74.4498   55.5987   41.5965 C   0  0  0  0  0  0
   75.2612   56.2509   42.6764 C   0  0  0  0  0  0
   75.3892   54.8184   40.7255 C   0  0  0  0  0  0
   73.3383   54.6614   43.2506 H   0  0  0  0  0  0
   71.2094   54.6202   41.5748 H   0  0  0  0  0  0
   70.7936   57.0220   42.0130 H   0  0  0  0  0  0
   71.8229   56.5581   43.3665 H   0  0  0  0  0  0
   73.5240   57.9702   42.4980 H   0  0  0  0  0  0
   72.4468   58.3943   41.1690 H   0  0  0  0  0  0
   74.2518   57.1457   40.0217 H   0  0  0  0  0  0
   71.7760   56.3296   39.6544 H   0  0  0  0  0  0
   72.8851   54.9414   39.5698 H   0  0  0  0  0  0
   76.0242   56.8850   42.2249 H   0  0  0  0  0  0
   74.6092   56.8581   43.3044 H   0  0  0  0  0  0
   75.7399   55.4836   43.2848 H   0  0  0  0  0  0
   76.1612   55.4828   40.3372 H   0  0  0  0  0  0
   75.8535   54.0251   41.3112 H   0  0  0  0  0  0
   74.8355   54.3804   39.8950 H   0  0  0  0  0  0
  1  2  1  0  0  0
  1  7  2  0  0  0
  1 18  1  0  0  0
  2  3  2  0  0  0
  2 13  1  0  0  0
  3  4  1  0  0  0
  3 10  1  0  0  0
  4  5  1  0  0  0
  4 17  1  0  0  0
  5  6  2  0  0  0
  5  7  1  0  0  0
  7  8  1  0  0  0
  8  9  3  0  0  0
 10 11  1  0  0  0
 10 14  1  0  0  0
 10 22  1  0  0  0
 11 12  1  0  0  0
 11 15  1  0  0  0
 11 16  1  0  0  0
 12 13  1  0  0  0
 12 19  1  0  0  0
 12 20  1  0  0  0
 13 21  1  0  0  0
 22 23  1  0  0  0
 22 28  1  0  0  0
 22 31  1  0  0  0
 23 24  1  0  0  0
 23 27  1  0  0  0
 23 32  1  0  0  0
 24 25  1  0  0  0
 24 33  1  0  0  0
 24 34  1  0  0  0
 25 26  1  0  0  0
 25 35  1  0  0  0
 25 36  1  0  0  0
 26 27  1  0  0  0
 26 28  1  0  0  0
 26 37  1  0  0  0
 27 38  1  0  0  0
 27 39  1  0  0  0
 28 29  1  0  0  0
 28 30  1  0  0  0
 29 40  1  0  0  0
 29 41  1  0  0  0
 29 42  1  0  0  0
 30 43  1  0  0  0
 30 44  1  0  0  0
 30 45  1  0  0  0
M  END
> <b_m_subgroup_collapsed>
1

> <s_m_subgroup_title>
enumerate_139-out

> <s_m_subgroupid>
enumerate_139-out

$$$$
