11921-8
                    3D
 Schrodinger Suite 2024-3.
 45 48  0  0  1  0            999 V2000
   76.7152   51.2564   42.5117 C   0  0  0  0  0  0
   75.6469   51.8672   41.7091 C   0  0  0  0  0  0
   74.7156   52.5958   42.3599 C   0  0  0  0  0  0
   74.7624   52.7581   43.7471 N   0  0  0  0  0  0
   75.7023   52.2182   44.5484 C   0  0  0  0  0  0
   75.6665   52.3767   45.7684 O   0  0  0  0  0  0
   76.7303   51.4438   43.8559 C   0  0  0  0  0  0
   77.7066   50.8711   44.7216 C   0  0  0  0  0  0
   78.4723   50.4247   45.4646 N   0  0  0  0  0  0
   73.5301   53.2752   41.6754 C   0  0  2  0  0  0
   73.5536   53.2080   40.1403 C   0  0  0  0  0  0
   74.1629   51.9154   39.6394 C   0  0  0  0  0  0
   75.5862   51.7783   40.1806 N   0  0  0  0  0  0
   72.6664   52.6907   41.9933 H   0  0  0  0  0  0
   72.5491   53.3463   39.7375 H   0  0  0  0  0  0
   74.1721   53.9906   39.7152 H   0  0  0  0  0  0
   74.0228   53.3179   44.1572 H   0  0  0  0  0  0
   78.2659   50.0552   41.5379 R   0  0  0  0  0  0
   73.5564   51.0654   39.9852 H   0  0  0  0  0  0
   74.1880   51.9241   38.5497 H   0  0  0  0  0  0
   76.4340   51.6429   39.6486 H   0  0  0  0  0  0
   73.3462   54.6828   42.1601 C   0  0  0  0  0  0
   72.0924   54.7698   42.9790 C   0  0  1  0  0  0
   71.3856   56.1015   43.0925 C   0  0  0  0  0  0
   70.7732   54.9881   42.2733 C   0  0  2  0  0  0
   69.5496   54.2942   42.7943 C   0  0  0  0  0  0
   73.2400   55.6069   40.9834 C   0  0  1  0  0  0
   73.6213   57.0594   41.1590 C   0  0  0  0  0  0
   74.5087   56.1369   40.3544 C   0  0  1  0  0  0
   75.8304   55.7204   40.9286 C   0  0  0  0  0  0
   74.2008   54.9708   42.7723 H   0  0  0  0  0  0
   72.1218   54.1124   43.8505 H   0  0  0  0  0  0
   70.9219   56.3731   44.0433 H   0  0  0  0  0  0
   71.8053   56.9671   42.5755 H   0  0  0  0  0  0
   70.7658   55.0769   41.1848 H   0  0  0  0  0  0
   69.6033   54.2300   43.8810 H   0  0  0  0  0  0
   68.6622   54.8580   42.5070 H   0  0  0  0  0  0
   69.4943   53.2903   42.3733 H   0  0  0  0  0  0
   72.3953   55.3579   40.3374 H   0  0  0  0  0  0
   73.0426   57.8236   40.6356 H   0  0  0  0  0  0
   73.9646   57.3998   42.1383 H   0  0  0  0  0  0
   74.5490   56.2575   39.2697 H   0  0  0  0  0  0
   75.7395   55.6136   42.0095 H   0  0  0  0  0  0
   76.1316   54.7676   40.4933 H   0  0  0  0  0  0
   76.5805   56.4776   40.7001 H   0  0  0  0  0  0
  1  2  1  0  0  0
  1  7  2  0  0  0
  1 18  1  0  0  0
  2  3  2  0  0  0
  2 13  1  0  0  0
  3  4  1  0  0  0
  3 10  1  0  0  0
  4  5  1  0  0  0
  4 17  1  0  0  0
  5  6  2  0  0  0
  5  7  1  0  0  0
  7  8  1  0  0  0
  8  9  3  0  0  0
 10 11  1  0  0  0
 10 14  1  0  0  0
 10 22  1  0  0  0
 11 12  1  0  0  0
 11 15  1  0  0  0
 11 16  1  0  0  0
 12 13  1  0  0  0
 12 19  1  0  0  0
 12 20  1  0  0  0
 13 21  1  0  0  0
 22 23  1  0  0  0
 22 27  1  0  0  0
 22 31  1  0  0  0
 23 24  1  0  0  0
 23 25  1  0  0  0
 23 32  1  0  0  0
 24 25  1  0  0  0
 24 33  1  0  0  0
 24 34  1  0  0  0
 25 26  1  0  0  0
 25 35  1  0  0  0
 26 36  1  0  0  0
 26 37  1  0  0  0
 26 38  1  0  0  0
 27 28  1  0  0  0
 27 29  1  0  0  0
 27 39  1  0  0  0
 28 29  1  0  0  0
 28 40  1  0  0  0
 28 41  1  0  0  0
 29 30  1  0  0  0
 29 42  1  0  0  0
 30 43  1  0  0  0
 30 44  1  0  0  0
 30 45  1  0  0  0
M  END
> <b_m_subgroup_collapsed>
1

> <s_m_subgroup_title>
enumerate_140-out

> <s_m_subgroupid>
enumerate_140-out

$$$$
