7848-1
                    3D
 Schrodinger Suite 2024-3.
 40 41  0  0  1  0            999 V2000
   76.7152   51.2564   42.5117 C   0  0  0  0  0  0
   75.6469   51.8672   41.7091 C   0  0  0  0  0  0
   74.7156   52.5958   42.3599 C   0  0  0  0  0  0
   74.7624   52.7581   43.7471 N   0  0  0  0  0  0
   75.7023   52.2182   44.5484 C   0  0  0  0  0  0
   75.6665   52.3767   45.7684 O   0  0  0  0  0  0
   76.7303   51.4438   43.8559 C   0  0  0  0  0  0
   77.7066   50.8711   44.7216 C   0  0  0  0  0  0
   78.4723   50.4247   45.4646 N   0  0  0  0  0  0
   73.5301   53.2752   41.6754 C   0  0  2  0  0  0
   73.5536   53.2080   40.1403 C   0  0  0  0  0  0
   74.1629   51.9154   39.6394 C   0  0  0  0  0  0
   75.5862   51.7783   40.1806 N   0  0  0  0  0  0
   72.6664   52.6907   41.9933 H   0  0  0  0  0  0
   72.5491   53.3463   39.7375 H   0  0  0  0  0  0
   74.1721   53.9906   39.7152 H   0  0  0  0  0  0
   74.0228   53.3179   44.1572 H   0  0  0  0  0  0
   78.2659   50.0552   41.5379 R   0  0  0  0  0  0
   73.5564   51.0654   39.9852 H   0  0  0  0  0  0
   74.1880   51.9241   38.5497 H   0  0  0  0  0  0
   76.4340   51.6429   39.6486 H   0  0  0  0  0  0
   69.0278   58.0474   42.8103 C   0  0  0  0  0  0
   68.4998   56.6437   42.7786 C   0  0  0  0  0  0
   69.5136   55.7146   43.3777 C   0  0  0  0  0  0
   70.7870   55.7878   42.5883 C   0  0  0  0  0  0
   71.8008   54.8587   43.1874 C   0  0  0  0  0  0
   73.3119   54.9455   42.2506 S   0  0  0  0  0  0
   74.4004   55.2377   43.1896 O   0  0  0  0  0  0
   73.0593   55.7897   41.0776 O   0  0  0  0  0  0
   68.2911   58.7226   42.3750 H   0  0  0  0  0  0
   69.2228   58.3390   43.8423 H   0  0  0  0  0  0
   69.9531   58.1006   42.2366 H   0  0  0  0  0  0
   68.3048   56.3521   41.7467 H   0  0  0  0  0  0
   67.5745   56.5905   43.3523 H   0  0  0  0  0  0
   69.1300   54.6946   43.3547 H   0  0  0  0  0  0
   69.7087   56.0062   44.4097 H   0  0  0  0  0  0
   71.1706   56.8078   42.6113 H   0  0  0  0  0  0
   70.5920   55.4961   41.5563 H   0  0  0  0  0  0
   71.4172   53.8387   43.1644 H   0  0  0  0  0  0
   71.9959   55.1503   44.2194 H   0  0  0  0  0  0
  1  2  1  0  0  0
  1  7  2  0  0  0
  1 18  1  0  0  0
  2  3  2  0  0  0
  2 13  1  0  0  0
  3  4  1  0  0  0
  3 10  1  0  0  0
  4  5  1  0  0  0
  4 17  1  0  0  0
  5  6  2  0  0  0
  5  7  1  0  0  0
  7  8  1  0  0  0
  8  9  3  0  0  0
 10 11  1  0  0  0
 10 14  1  0  0  0
 10 27  1  0  0  0
 11 12  1  0  0  0
 11 15  1  0  0  0
 11 16  1  0  0  0
 12 13  1  0  0  0
 12 19  1  0  0  0
 12 20  1  0  0  0
 13 21  1  0  0  0
 22 23  1  0  0  0
 22 30  1  0  0  0
 22 31  1  0  0  0
 22 32  1  0  0  0
 23 24  1  0  0  0
 23 33  1  0  0  0
 23 34  1  0  0  0
 24 25  1  0  0  0
 24 35  1  0  0  0
 24 36  1  0  0  0
 25 26  1  0  0  0
 25 37  1  0  0  0
 25 38  1  0  0  0
 26 27  1  0  0  0
 26 39  1  0  0  0
 26 40  1  0  0  0
 27 28  2  0  0  0
 27 29  2  0  0  0
M  END
> <b_m_subgroup_collapsed>
1

> <s_m_subgroup_title>
enumerate_140-out

> <s_m_subgroupid>
enumerate_140-out

$$$$
