18304-1
                    3D
 Schrodinger Suite 2024-3.
 42 44  0  0  1  0            999 V2000
   76.7152   51.2564   42.5117 C   0  0  0  0  0  0
   75.6469   51.8672   41.7091 C   0  0  0  0  0  0
   74.7156   52.5958   42.3599 C   0  0  0  0  0  0
   74.7624   52.7581   43.7471 N   0  0  0  0  0  0
   75.7023   52.2182   44.5484 C   0  0  0  0  0  0
   75.6665   52.3767   45.7684 O   0  0  0  0  0  0
   76.7303   51.4438   43.8559 C   0  0  0  0  0  0
   77.7066   50.8711   44.7216 C   0  0  0  0  0  0
   78.4723   50.4247   45.4646 N   0  0  0  0  0  0
   73.5301   53.2752   41.6754 C   0  0  2  0  0  0
   73.5536   53.2080   40.1403 C   0  0  0  0  0  0
   74.1629   51.9154   39.6394 C   0  0  0  0  0  0
   75.5862   51.7783   40.1806 N   0  0  0  0  0  0
   72.6664   52.6907   41.9933 H   0  0  0  0  0  0
   72.5491   53.3463   39.7375 H   0  0  0  0  0  0
   74.1721   53.9906   39.7152 H   0  0  0  0  0  0
   74.0228   53.3179   44.1572 H   0  0  0  0  0  0
   78.2659   50.0552   41.5379 R   0  0  0  0  0  0
   73.5564   51.0654   39.9852 H   0  0  0  0  0  0
   74.1880   51.9241   38.5497 H   0  0  0  0  0  0
   76.4340   51.6429   39.6486 H   0  0  0  0  0  0
   69.7948   54.3263   42.8155 C   0  0  0  0  0  0
   71.0196   54.3351   42.1798 O   0  0  0  0  0  0
   72.0843   54.7169   42.9703 C   0  0  0  0  0  0
   73.3462   54.6828   42.1601 C   0  0  0  0  0  0
   74.5243   55.1785   43.0020 C   0  0  0  0  0  0
   74.5278   56.7087   42.8502 C   0  0  0  0  0  0
   73.5628   57.0346   41.6981 C   0  0  0  0  0  0
   73.2615   55.6959   41.0201 C   0  0  0  0  0  0
   69.0228   54.0133   42.1126 H   0  0  0  0  0  0
   69.8258   53.6310   43.6544 H   0  0  0  0  0  0
   69.5683   55.3276   43.1818 H   0  0  0  0  0  0
   72.1751   54.0318   43.8132 H   0  0  0  0  0  0
   71.9175   55.7284   43.3406 H   0  0  0  0  0  0
   74.4527   54.8597   44.0435 H   0  0  0  0  0  0
   75.4552   54.7679   42.6053 H   0  0  0  0  0  0
   74.2036   57.1983   43.7706 H   0  0  0  0  0  0
   75.5357   57.0698   42.6367 H   0  0  0  0  0  0
   72.6394   57.4565   42.1005 H   0  0  0  0  0  0
   73.9725   57.7687   41.0019 H   0  0  0  0  0  0
   74.0235   55.4765   40.2690 H   0  0  0  0  0  0
   72.2937   55.6859   40.5157 H   0  0  0  0  0  0
  1  2  1  0  0  0
  1  7  2  0  0  0
  1 18  1  0  0  0
  2  3  2  0  0  0
  2 13  1  0  0  0
  3  4  1  0  0  0
  3 10  1  0  0  0
  4  5  1  0  0  0
  4 17  1  0  0  0
  5  6  2  0  0  0
  5  7  1  0  0  0
  7  8  1  0  0  0
  8  9  3  0  0  0
 10 11  1  0  0  0
 10 14  1  0  0  0
 10 25  1  0  0  0
 11 12  1  0  0  0
 11 15  1  0  0  0
 11 16  1  0  0  0
 12 13  1  0  0  0
 12 19  1  0  0  0
 12 20  1  0  0  0
 13 21  1  0  0  0
 22 23  1  0  0  0
 22 30  1  0  0  0
 22 31  1  0  0  0
 22 32  1  0  0  0
 23 24  1  0  0  0
 24 25  1  0  0  0
 24 33  1  0  0  0
 24 34  1  0  0  0
 25 26  1  0  0  0
 25 29  1  0  0  0
 26 27  1  0  0  0
 26 35  1  0  0  0
 26 36  1  0  0  0
 27 28  1  0  0  0
 27 37  1  0  0  0
 27 38  1  0  0  0
 28 29  1  0  0  0
 28 39  1  0  0  0
 28 40  1  0  0  0
 29 41  1  0  0  0
 29 42  1  0  0  0
M  END
> <b_m_subgroup_collapsed>
1

> <s_m_subgroup_title>
enumerate_139-out

> <s_m_subgroupid>
enumerate_139-out

$$$$
