43699-3
                    3D
 Schrodinger Suite 2024-3.
 40 43  0  0  1  0            999 V2000
   76.7152   51.2564   42.5117 C   0  0  0  0  0  0
   75.6469   51.8672   41.7091 C   0  0  0  0  0  0
   74.7156   52.5958   42.3599 C   0  0  0  0  0  0
   74.7624   52.7581   43.7471 N   0  0  0  0  0  0
   75.7023   52.2182   44.5484 C   0  0  0  0  0  0
   75.6665   52.3767   45.7684 O   0  0  0  0  0  0
   76.7303   51.4438   43.8559 C   0  0  0  0  0  0
   77.7066   50.8711   44.7216 C   0  0  0  0  0  0
   78.4723   50.4247   45.4646 N   0  0  0  0  0  0
   73.5301   53.2752   41.6754 C   0  0  2  0  0  0
   73.5536   53.2080   40.1403 C   0  0  0  0  0  0
   74.1629   51.9154   39.6394 C   0  0  0  0  0  0
   75.5862   51.7783   40.1806 N   0  0  0  0  0  0
   72.6664   52.6907   41.9933 H   0  0  0  0  0  0
   72.5491   53.3463   39.7375 H   0  0  0  0  0  0
   74.1721   53.9906   39.7152 H   0  0  0  0  0  0
   74.0228   53.3179   44.1572 H   0  0  0  0  0  0
   78.2659   50.0552   41.5379 R   0  0  0  0  0  0
   73.5564   51.0654   39.9852 H   0  0  0  0  0  0
   74.1880   51.9241   38.5497 H   0  0  0  0  0  0
   76.4340   51.6429   39.6486 H   0  0  0  0  0  0
   73.3609   54.5702   42.1213 O   0  0  0  0  0  0
   72.1951   55.1818   41.7075 C   0  0  2  0  0  0
   72.4578   56.4833   40.9254 C   0  0  0  0  0  0
   71.7139   57.5392   41.7638 C   0  0  2  0  0  0
   72.4792   57.7734   43.0794 C   0  0  0  0  0  0
   72.2163   56.4720   43.8616 C   0  0  0  0  0  0
   71.3355   55.6643   42.8905 C   0  0  1  0  0  0
   70.4951   56.7591   42.2432 C   0  0  0  0  0  0
   71.6450   54.4687   41.0920 H   0  0  0  0  0  0
   73.5216   56.7046   40.8290 H   0  0  0  0  0  0
   72.0386   56.4183   39.9204 H   0  0  0  0  0  0
   71.4909   58.4561   41.2168 H   0  0  0  0  0  0
   73.5423   57.9533   42.9142 H   0  0  0  0  0  0
   72.0753   58.6325   43.6169 H   0  0  0  0  0  0
   71.6811   56.6829   44.7885 H   0  0  0  0  0  0
   73.1370   55.9474   44.1203 H   0  0  0  0  0  0
   70.7667   54.8682   43.3728 H   0  0  0  0  0  0
   69.8638   56.3975   41.4294 H   0  0  0  0  0  0
   69.8792   57.3114   42.9554 H   0  0  0  0  0  0
  1  2  1  0  0  0
  1  7  2  0  0  0
  1 18  1  0  0  0
  2  3  2  0  0  0
  2 13  1  0  0  0
  3  4  1  0  0  0
  3 10  1  0  0  0
  4  5  1  0  0  0
  4 17  1  0  0  0
  5  6  2  0  0  0
  5  7  1  0  0  0
  7  8  1  0  0  0
  8  9  3  0  0  0
 10 11  1  0  0  0
 10 14  1  0  0  0
 10 22  1  0  0  0
 11 12  1  0  0  0
 11 15  1  0  0  0
 11 16  1  0  0  0
 12 13  1  0  0  0
 12 19  1  0  0  0
 12 20  1  0  0  0
 13 21  1  0  0  0
 22 23  1  0  0  0
 23 24  1  0  0  0
 23 28  1  0  0  0
 23 30  1  0  0  0
 24 25  1  0  0  0
 24 31  1  0  0  0
 24 32  1  0  0  0
 25 26  1  0  0  0
 25 29  1  0  0  0
 25 33  1  0  0  0
 26 27  1  0  0  0
 26 34  1  0  0  0
 26 35  1  0  0  0
 27 28  1  0  0  0
 27 36  1  0  0  0
 27 37  1  0  0  0
 28 29  1  0  0  0
 28 38  1  0  0  0
 29 39  1  0  0  0
 29 40  1  0  0  0
M  END
> <b_m_subgroup_collapsed>
1

> <s_m_subgroup_title>
enumerate_139-out

> <s_m_subgroupid>
enumerate_139-out

$$$$
