25024-1
                    3D
 Schrodinger Suite 2024-3.
 42 44  0  0  1  0            999 V2000
   76.7152   51.2564   42.5117 C   0  0  0  0  0  0
   75.6469   51.8672   41.7091 C   0  0  0  0  0  0
   74.7156   52.5958   42.3599 C   0  0  0  0  0  0
   74.7624   52.7581   43.7471 N   0  0  0  0  0  0
   75.7023   52.2182   44.5484 C   0  0  0  0  0  0
   75.6665   52.3767   45.7684 O   0  0  0  0  0  0
   76.7303   51.4438   43.8559 C   0  0  0  0  0  0
   77.7066   50.8711   44.7216 C   0  0  0  0  0  0
   78.4723   50.4247   45.4646 N   0  0  0  0  0  0
   73.5301   53.2752   41.6754 C   0  0  2  0  0  0
   73.5536   53.2080   40.1403 C   0  0  0  0  0  0
   74.1629   51.9154   39.6394 C   0  0  0  0  0  0
   75.5862   51.7783   40.1806 N   0  0  0  0  0  0
   72.6664   52.6907   41.9933 H   0  0  0  0  0  0
   72.5491   53.3463   39.7375 H   0  0  0  0  0  0
   74.1721   53.9906   39.7152 H   0  0  0  0  0  0
   74.0228   53.3179   44.1572 H   0  0  0  0  0  0
   78.2659   50.0552   41.5379 R   0  0  0  0  0  0
   73.5564   51.0654   39.9852 H   0  0  0  0  0  0
   74.1880   51.9241   38.5497 H   0  0  0  0  0  0
   76.4340   51.6429   39.6486 H   0  0  0  0  0  0
   73.3119   54.9455   42.2506 S   0  0  0  0  0  0
   72.0045   55.0202   42.9119 O   0  0  0  0  0  0
   74.5459   55.3438   42.9367 O   0  0  0  0  0  0
   73.2094   55.8633   40.7759 N   0  0  0  0  0  0
   73.0264   57.2766   41.0932 C   0  0  0  0  0  0
   72.9381   58.0672   39.8215 C   0  0  0  0  0  0
   71.7033   58.2815   39.2207 C   0  0  0  0  0  0
   71.6215   59.0140   38.0425 C   0  0  0  0  0  0
   72.7745   59.5323   37.4649 C   0  0  0  0  0  0
   72.6886   60.3018   36.2272 N   0  0  0  0  0  0
   74.0094   59.3180   38.0657 C   0  0  0  0  0  0
   74.0911   58.5855   39.2440 C   0  0  0  0  0  0
   72.1073   57.4046   41.6651 H   0  0  0  0  0  0
   73.8729   57.6294   41.6823 H   0  0  0  0  0  0
   70.8056   57.8780   39.6704 H   0  0  0  0  0  0
   70.6601   59.1809   37.5747 H   0  0  0  0  0  0
   73.5473   60.6877   35.7972 H   0  0  0  0  0  0
   71.7691   60.4614   35.7797 H   0  0  0  0  0  0
   74.9071   59.7215   37.6161 H   0  0  0  0  0  0
   75.0525   58.4187   39.7117 H   0  0  0  0  0  0
   72.4257   55.5364   40.2290 H   0  0  0  0  0  0
  1  2  1  0  0  0
  1  7  2  0  0  0
  1 18  1  0  0  0
  2  3  2  0  0  0
  2 13  1  0  0  0
  3  4  1  0  0  0
  3 10  1  0  0  0
  4  5  1  0  0  0
  4 17  1  0  0  0
  5  6  2  0  0  0
  5  7  1  0  0  0
  7  8  1  0  0  0
  8  9  3  0  0  0
 10 11  1  0  0  0
 10 14  1  0  0  0
 10 22  1  0  0  0
 11 12  1  0  0  0
 11 15  1  0  0  0
 11 16  1  0  0  0
 12 13  1  0  0  0
 12 19  1  0  0  0
 12 20  1  0  0  0
 13 21  1  0  0  0
 22 23  2  0  0  0
 22 24  2  0  0  0
 22 25  1  0  0  0
 25 26  1  0  0  0
 25 42  1  0  0  0
 26 27  1  0  0  0
 26 34  1  0  0  0
 26 35  1  0  0  0
 27 28  2  0  0  0
 27 33  1  0  0  0
 28 29  1  0  0  0
 28 36  1  0  0  0
 29 30  2  0  0  0
 29 37  1  0  0  0
 30 31  1  0  0  0
 30 32  1  0  0  0
 31 38  1  0  0  0
 31 39  1  0  0  0
 32 33  2  0  0  0
 32 40  1  0  0  0
 33 41  1  0  0  0
M  END
> <b_m_subgroup_collapsed>
1

> <s_m_subgroup_title>
enumerate_140-out

> <s_m_subgroupid>
enumerate_140-out

$$$$
