32187-1
                    3D
 Schrodinger Suite 2024-3.
 36 38  0  0  1  0            999 V2000
   76.7152   51.2564   42.5117 C   0  0  0  0  0  0
   75.6469   51.8672   41.7091 C   0  0  0  0  0  0
   74.7156   52.5958   42.3599 C   0  0  0  0  0  0
   74.7624   52.7581   43.7471 N   0  0  0  0  0  0
   75.7023   52.2182   44.5484 C   0  0  0  0  0  0
   75.6665   52.3767   45.7684 O   0  0  0  0  0  0
   76.7303   51.4438   43.8559 C   0  0  0  0  0  0
   77.7066   50.8711   44.7216 C   0  0  0  0  0  0
   78.4723   50.4247   45.4646 N   0  0  0  0  0  0
   73.5301   53.2752   41.6754 C   0  0  2  0  0  0
   73.5536   53.2080   40.1403 C   0  0  0  0  0  0
   74.1629   51.9154   39.6394 C   0  0  0  0  0  0
   75.5862   51.7783   40.1806 N   0  0  0  0  0  0
   72.6664   52.6907   41.9933 H   0  0  0  0  0  0
   72.5491   53.3463   39.7375 H   0  0  0  0  0  0
   74.1721   53.9906   39.7152 H   0  0  0  0  0  0
   74.0228   53.3179   44.1572 H   0  0  0  0  0  0
   78.2659   50.0552   41.5379 R   0  0  0  0  0  0
   73.5564   51.0654   39.9852 H   0  0  0  0  0  0
   74.1880   51.9241   38.5497 H   0  0  0  0  0  0
   76.4340   51.6429   39.6486 H   0  0  0  0  0  0
   73.3462   54.6828   42.1601 C   0  0  0  0  0  0
   74.2832   55.5634   42.4280 N   0  0  0  0  0  0
   73.6411   56.6542   42.8204 C   0  0  0  0  0  0
   74.3599   57.9079   43.2225 C   0  0  1  0  0  0
   74.6443   57.8708   44.6948 C   0  0  0  0  0  0
   75.5480   58.0003   42.5266 O   0  0  0  0  0  0
   72.2662   56.4726   42.8048 C   0  0  0  0  0  0
   72.0904   55.1844   42.3727 N   0  0  0  0  0  0
   73.7370   58.7728   42.9944 H   0  0  0  0  0  0
   73.7059   57.7978   45.2444 H   0  0  0  0  0  0
   75.2672   57.0059   44.9228 H   0  0  0  0  0  0
   75.1666   58.7819   44.9870 H   0  0  0  0  0  0
   71.4323   57.1184   43.0523 H   0  0  0  0  0  0
   75.4537   58.0309   41.5315 H   0  0  0  0  0  0
   71.2105   54.6917   42.2348 H   0  0  0  0  0  0
  1  2  1  0  0  0
  1  7  2  0  0  0
  1 18  1  0  0  0
  2  3  2  0  0  0
  2 13  1  0  0  0
  3  4  1  0  0  0
  3 10  1  0  0  0
  4  5  1  0  0  0
  4 17  1  0  0  0
  5  6  2  0  0  0
  5  7  1  0  0  0
  7  8  1  0  0  0
  8  9  3  0  0  0
 10 11  1  0  0  0
 10 14  1  0  0  0
 10 22  1  0  0  0
 11 12  1  0  0  0
 11 15  1  0  0  0
 11 16  1  0  0  0
 12 13  1  0  0  0
 12 19  1  0  0  0
 12 20  1  0  0  0
 13 21  1  0  0  0
 22 23  2  0  0  0
 22 29  1  0  0  0
 23 24  1  0  0  0
 24 25  1  0  0  0
 24 28  2  0  0  0
 25 26  1  0  0  0
 25 27  1  0  0  0
 25 30  1  0  0  0
 26 31  1  0  0  0
 26 32  1  0  0  0
 26 33  1  0  0  0
 27 35  1  0  0  0
 28 29  1  0  0  0
 28 34  1  0  0  0
 29 36  1  0  0  0
M  END
> <b_m_subgroup_collapsed>
1

> <s_m_subgroup_title>
enumerate_140-out

> <s_m_subgroupid>
enumerate_140-out

$$$$
