10117-4
                    3D
 Schrodinger Suite 2024-3.
 43 46  0  0  1  0            999 V2000
   76.7152   51.2564   42.5117 C   0  0  0  0  0  0
   75.6469   51.8672   41.7091 C   0  0  0  0  0  0
   74.7156   52.5958   42.3599 C   0  0  0  0  0  0
   74.7624   52.7581   43.7471 N   0  0  0  0  0  0
   75.7023   52.2182   44.5484 C   0  0  0  0  0  0
   75.6665   52.3767   45.7684 O   0  0  0  0  0  0
   76.7303   51.4438   43.8559 C   0  0  0  0  0  0
   77.7066   50.8711   44.7216 C   0  0  0  0  0  0
   78.4723   50.4247   45.4646 N   0  0  0  0  0  0
   73.5301   53.2752   41.6754 C   0  0  2  0  0  0
   73.5536   53.2080   40.1403 C   0  0  0  0  0  0
   74.1629   51.9154   39.6394 C   0  0  0  0  0  0
   75.5862   51.7783   40.1806 N   0  0  0  0  0  0
   72.6664   52.6907   41.9933 H   0  0  0  0  0  0
   72.5491   53.3463   39.7375 H   0  0  0  0  0  0
   74.1721   53.9906   39.7152 H   0  0  0  0  0  0
   74.0228   53.3179   44.1572 H   0  0  0  0  0  0
   78.2659   50.0552   41.5379 R   0  0  0  0  0  0
   73.5564   51.0654   39.9852 H   0  0  0  0  0  0
   74.1880   51.9241   38.5497 H   0  0  0  0  0  0
   76.4340   51.6429   39.6486 H   0  0  0  0  0  0
   73.3462   54.6828   42.1601 C   0  0  1  0  0  0
   74.4498   55.5986   41.5963 C   0  0  0  0  0  0
   73.6517   56.6192   40.7641 C   0  0  2  0  0  0
   74.4772   57.3397   39.7397 C   0  0  0  0  0  0
   75.4935   58.0286   40.3696 O   0  0  0  0  0  0
   72.8847   57.5582   41.7135 C   0  0  0  0  0  0
   71.7812   56.6428   42.2781 C   0  0  0  0  0  0
   72.0618   55.3007   41.5773 C   0  0  1  0  0  0
   72.5288   55.7563   40.1997 C   0  0  0  0  0  0
   73.3383   54.6612   43.2506 H   0  0  0  0  0  0
   75.0388   56.0741   42.3817 H   0  0  0  0  0  0
   75.1340   55.0308   40.9642 H   0  0  0  0  0  0
   74.9046   56.6174   39.0441 H   0  0  0  0  0  0
   73.8470   58.0413   39.1932 H   0  0  0  0  0  0
   72.4472   58.3935   41.1649 H   0  0  0  0  0  0
   73.5245   57.9711   42.4944 H   0  0  0  0  0  0
   70.7940   57.0224   42.0109 H   0  0  0  0  0  0
   71.8234   56.5600   43.3649 H   0  0  0  0  0  0
   71.2093   54.6201   41.5754 H   0  0  0  0  0  0
   72.8846   54.9388   39.5698 H   0  0  0  0  0  0
   71.7758   56.3272   39.6531 H   0  0  0  0  0  0
   76.0978   58.5413   39.7598 H   0  0  0  0  0  0
  1  2  1  0  0  0
  1  7  2  0  0  0
  1 18  1  0  0  0
  2  3  2  0  0  0
  2 13  1  0  0  0
  3  4  1  0  0  0
  3 10  1  0  0  0
  4  5  1  0  0  0
  4 17  1  0  0  0
  5  6  2  0  0  0
  5  7  1  0  0  0
  7  8  1  0  0  0
  8  9  3  0  0  0
 10 11  1  0  0  0
 10 14  1  0  0  0
 10 22  1  0  0  0
 11 12  1  0  0  0
 11 15  1  0  0  0
 11 16  1  0  0  0
 12 13  1  0  0  0
 12 19  1  0  0  0
 12 20  1  0  0  0
 13 21  1  0  0  0
 22 23  1  0  0  0
 22 29  1  0  0  0
 22 31  1  0  0  0
 23 24  1  0  0  0
 23 32  1  0  0  0
 23 33  1  0  0  0
 24 25  1  0  0  0
 24 27  1  0  0  0
 24 30  1  0  0  0
 25 26  1  0  0  0
 25 34  1  0  0  0
 25 35  1  0  0  0
 26 43  1  0  0  0
 27 28  1  0  0  0
 27 36  1  0  0  0
 27 37  1  0  0  0
 28 29  1  0  0  0
 28 38  1  0  0  0
 28 39  1  0  0  0
 29 30  1  0  0  0
 29 40  1  0  0  0
 30 41  1  0  0  0
 30 42  1  0  0  0
M  END
> <b_m_subgroup_collapsed>
1

> <s_m_subgroup_title>
enumerate_140-out

> <s_m_subgroupid>
enumerate_140-out

$$$$
