R-group 1 (11-1)
     RDKit          3D

  0  0  0  0  0  0  0  0  0  0999 V3000
M  V30 BEGIN CTAB
M  V30 COUNTS 13 13 0 0 1
M  V30 BEGIN ATOM
M  V30 1 N 73.272500 54.621500 42.125400 0
M  V30 2 C 74.270500 55.572200 41.887700 0
M  V30 3 C 75.256900 56.002300 42.799700 0
M  V30 4 N 76.070500 56.857200 42.236400 0
M  V30 5 O 75.634000 57.028900 40.925300 0
M  V30 6 C 74.489800 56.332000 40.770200 0
M  V30 7 C 73.770400 56.541900 39.479500 0
M  V30 8 H 72.880600 54.624300 43.068900 0
M  V30 9 H 75.438500 55.669800 43.811300 0
M  V30 10 H 72.784000 56.068900 39.497100 0
M  V30 11 H 73.630800 57.611200 39.294600 0
M  V30 12 H 74.338300 56.129300 38.643700 0
M  V30 13 R 73.530100 53.275200 41.675400 0
M  V30 END ATOM
M  V30 BEGIN BOND
M  V30 1 1 2 1
M  V30 2 1 3 2
M  V30 3 2 4 3
M  V30 4 1 5 4
M  V30 5 2 6 2
M  V30 6 1 6 5
M  V30 7 1 7 6
M  V30 8 1 8 1
M  V30 9 1 9 3
M  V30 10 1 10 7
M  V30 11 1 11 7
M  V30 12 1 12 7
M  V30 13 1 13 1
M  V30 END BOND
M  V30 END CTAB
M  END
$$$$
R-group 2 (14755-1)
     RDKit          3D

  0  0  0  0  0  0  0  0  0  0999 V3000
M  V30 BEGIN CTAB
M  V30 COUNTS 10 10 0 0 1
M  V30 BEGIN ATOM
M  V30 1 N 73.249000 54.473800 42.124700 0
M  V30 2 C 74.276600 55.334700 41.771100 0
M  V30 3 C 74.558700 56.484600 42.524800 0
M  V30 4 C 75.762900 56.857900 42.023400 0
M  V30 5 O 76.072200 56.156600 40.924500 0
M  V30 6 N 75.105700 55.167900 40.773500 0
M  V30 7 H 74.025400 56.908800 43.355400 0
M  V30 8 H 76.451700 57.653500 42.270100 0
M  V30 9 H 72.864800 54.671900 43.046000 0
M  V30 10 R 73.350000 53.064200 41.840200 0
M  V30 END ATOM
M  V30 BEGIN BOND
M  V30 1 1 2 1
M  V30 2 1 3 2
M  V30 3 2 4 3
M  V30 4 1 5 4
M  V30 5 2 6 2
M  V30 6 1 6 5
M  V30 7 1 7 3
M  V30 8 1 8 4
M  V30 9 1 9 1
M  V30 10 1 10 1
M  V30 END BOND
M  V30 END CTAB
M  END
$$$$
R-group 3 (15646-1)
     RDKit          3D

  0  0  0  0  0  0  0  0  0  0999 V3000
M  V30 BEGIN CTAB
M  V30 COUNTS 10 10 0 0 1
M  V30 BEGIN ATOM
M  V30 1 N 73.315900 54.615200 42.126300 0
M  V30 2 C 74.206400 55.620900 41.840200 0
M  V30 3 N 74.671400 56.062700 40.678100 0
M  V30 4 C 75.748400 56.858800 41.028500 0
M  V30 5 C 75.832300 56.858000 42.393800 0
M  V30 6 O 74.867700 56.060100 42.924700 0
M  V30 7 H 76.334400 57.380800 40.289800 0
M  V30 8 H 76.471300 57.352500 43.103700 0
M  V30 9 H 72.988900 54.722300 43.087000 0
M  V30 10 R 73.375900 53.212200 41.818500 0
M  V30 END ATOM
M  V30 BEGIN BOND
M  V30 1 1 2 1
M  V30 2 2 3 2
M  V30 3 1 4 3
M  V30 4 2 5 4
M  V30 5 1 6 2
M  V30 6 1 6 5
M  V30 7 1 7 4
M  V30 8 1 8 5
M  V30 9 1 9 1
M  V30 10 1 10 1
M  V30 END BOND
M  V30 END CTAB
M  END
$$$$
R-group 4 (6209-1)
     RDKit          3D

  0  0  0  0  0  0  0  0  0  0999 V3000
M  V30 BEGIN CTAB
M  V30 COUNTS 9 9 0 0 1
M  V30 BEGIN ATOM
M  V30 1 C 73.670200 54.533300 41.442300 0
M  V30 2 C 73.517100 55.151500 40.262700 0
M  V30 3 S 73.672300 56.858400 40.375900 0
M  V30 4 C 73.825000 56.716200 42.160700 0
M  V30 5 O 73.737500 57.657300 42.925200 0
M  V30 6 N 73.893900 55.384800 42.500400 0
M  V30 7 H 73.270600 54.713000 39.311800 0
M  V30 8 H 73.836800 55.098400 43.466400 0
M  V30 9 R 73.497800 53.061400 41.744500 0
M  V30 END ATOM
M  V30 BEGIN BOND
M  V30 1 2 2 1
M  V30 2 1 3 2
M  V30 3 1 4 3
M  V30 4 2 5 4
M  V30 5 1 6 1
M  V30 6 1 6 4
M  V30 7 1 7 2
M  V30 8 1 8 6
M  V30 9 1 9 1
M  V30 END BOND
M  V30 END CTAB
M  END
$$$$
R-group 5 (31480-1)
     RDKit          3D

  0  0  0  0  0  0  0  0  0  0999 V3000
M  V30 BEGIN CTAB
M  V30 COUNTS 13 13 0 0 1
M  V30 BEGIN ATOM
M  V30 1 C 74.573700 55.168600 41.599800 0 CFG=1
M  V30 2 C 74.120400 56.203200 40.557400 0
M  V30 3 C 74.687400 57.275000 41.487300 0
M  V30 4 C 74.490400 56.292900 42.641300 0 CFG=1
M  V30 5 O 73.272300 56.458000 43.324700 0
M  V30 6 H 75.634200 54.984800 41.404100 0
M  V30 7 H 74.613700 56.135100 39.587500 0
M  V30 8 H 73.035500 56.268300 40.456900 0
M  V30 9 H 74.071300 58.170000 41.563100 0
M  V30 10 H 75.736000 57.510700 41.295700 0
M  V30 11 H 75.319200 56.287200 43.349500 0
M  V30 12 H 73.139700 55.706000 43.896400 0
M  V30 13 R 73.851200 53.822400 41.791600 0
M  V30 END ATOM
M  V30 BEGIN BOND
M  V30 1 1 2 1
M  V30 2 1 3 2
M  V30 3 1 4 1
M  V30 4 1 4 3
M  V30 5 1 5 4
M  V30 6 1 1 6 CFG=3
M  V30 7 1 7 2
M  V30 8 1 8 2
M  V30 9 1 9 3
M  V30 10 1 10 3
M  V30 11 1 4 11 CFG=1
M  V30 12 1 12 5
M  V30 13 1 13 1
M  V30 END BOND
M  V30 END CTAB
M  END
$$$$
R-group 6 (7268-1)
     RDKit          3D

  0  0  0  0  0  0  0  0  0  0999 V3000
M  V30 BEGIN CTAB
M  V30 COUNTS 13 13 0 0 1
M  V30 BEGIN ATOM
M  V30 1 N 72.972300 54.303100 42.124700 0
M  V30 2 C 73.855400 55.371600 42.017400 0
M  V30 3 C 74.989000 55.460800 41.169000 0
M  V30 4 C 75.503300 56.675600 41.491100 0
M  V30 5 C 76.702000 57.421400 41.027700 0
M  V30 6 O 74.744900 57.257900 42.451400 0
M  V30 7 N 73.675100 56.432000 42.765100 0
M  V30 8 H 75.396800 54.761000 40.462500 0
M  V30 9 H 77.133600 56.963700 40.143400 0
M  V30 10 H 76.472300 58.454700 40.794200 0
M  V30 11 H 77.454500 57.417400 41.805300 0
M  V30 12 H 72.468800 54.335500 43.008200 0
M  V30 13 R 73.363200 52.996300 41.679000 0
M  V30 END ATOM
M  V30 BEGIN BOND
M  V30 1 1 2 1
M  V30 2 1 3 2
M  V30 3 2 4 3
M  V30 4 1 5 4
M  V30 5 1 6 4
M  V30 6 2 7 2
M  V30 7 1 7 6
M  V30 8 1 8 3
M  V30 9 1 9 5
M  V30 10 1 10 5
M  V30 11 1 11 5
M  V30 12 1 12 1
M  V30 13 1 13 1
M  V30 END BOND
M  V30 END CTAB
M  END
$$$$
R-group 7 (2339-1)
     RDKit          3D

  0  0  0  0  0  0  0  0  0  0999 V3000
M  V30 BEGIN CTAB
M  V30 COUNTS 10 10 0 0 1
M  V30 BEGIN ATOM
M  V30 1 C 74.201900 54.946300 41.861700 0
M  V30 2 C 75.257400 55.518500 41.207600 0
M  V30 3 C 75.361400 56.858000 41.638700 0
M  V30 4 C 74.347800 57.098600 42.521300 0
M  V30 5 N 73.672300 55.920500 42.670000 0
M  V30 6 H 75.935500 55.031600 40.526600 0
M  V30 7 H 76.101400 57.581400 41.327600 0
M  V30 8 H 74.072500 57.981700 43.079700 0
M  V30 9 H 72.922500 55.760800 43.335700 0
M  V30 10 R 73.677300 53.554200 41.884800 0
M  V30 END ATOM
M  V30 BEGIN BOND
M  V30 1 2 2 1
M  V30 2 1 3 2
M  V30 3 2 4 3
M  V30 4 1 5 1
M  V30 5 1 5 4
M  V30 6 1 6 2
M  V30 7 1 7 3
M  V30 8 1 8 4
M  V30 9 1 9 5
M  V30 10 1 10 1
M  V30 END BOND
M  V30 END CTAB
M  END
$$$$
R-group 8 (4357-1)
     RDKit          3D

  0  0  0  0  0  0  0  0  0  0999 V3000
M  V30 BEGIN CTAB
M  V30 COUNTS 15 14 0 0 1
M  V30 BEGIN ATOM
M  V30 1 N 73.378300 54.591200 42.125000 0
M  V30 2 C 74.300300 55.500000 41.801900 0
M  V30 3 O 75.228500 55.304600 41.024000 0
M  V30 4 C 74.171800 56.846100 42.483000 0
M  V30 5 C 73.545100 57.821900 41.482400 0
M  V30 6 C 75.565700 57.258000 42.986300 0
M  V30 7 H 73.511800 56.749600 43.347300 0
M  V30 8 H 72.474800 57.656500 41.397500 0
M  V30 9 H 73.963400 57.660100 40.485600 0
M  V30 10 H 73.672100 58.857600 41.785100 0
M  V30 11 H 76.074400 56.432300 43.484700 0
M  V30 12 H 76.213700 57.600300 42.178100 0
M  V30 13 H 75.484200 58.042100 43.724800 0
M  V30 14 H 72.696200 54.871500 42.818800 0
M  V30 15 R 73.398700 53.179900 41.821200 0
M  V30 END ATOM
M  V30 BEGIN BOND
M  V30 1 1 2 1
M  V30 2 2 3 2
M  V30 3 1 4 2
M  V30 4 1 5 4
M  V30 5 1 6 4
M  V30 6 1 7 4
M  V30 7 1 8 5
M  V30 8 1 9 5
M  V30 9 1 10 5
M  V30 10 1 11 6
M  V30 11 1 12 6
M  V30 12 1 13 6
M  V30 13 1 14 1
M  V30 14 1 15 1
M  V30 END BOND
M  V30 END CTAB
M  END
$$$$
R-group 9 (15508-1)
     RDKit          3D

  0  0  0  0  0  0  0  0  0  0999 V3000
M  V30 BEGIN CTAB
M  V30 COUNTS 21 22 0 0 1
M  V30 BEGIN ATOM
M  V30 1 N 73.272700 54.522500 42.092600 0
M  V30 2 C 74.501800 55.291400 42.039900 0 CFG=1
M  V30 3 C 74.576300 56.502400 41.122300 0 CFG=2
M  V30 4 C 75.962400 57.014800 41.580700 0
M  V30 5 C 75.939100 56.764200 43.108200 0
M  V30 6 C 74.583000 56.101000 43.301300 0 CFG=1
M  V30 7 C 73.463000 57.157200 43.152700 0
M  V30 8 C 73.472700 57.449800 41.642900 0
M  V30 9 H 72.880500 54.611800 43.025800 0
M  V30 10 H 75.386800 54.667300 41.910900 0
M  V30 11 H 74.517100 56.284900 40.055300 0
M  V30 12 H 76.764900 56.435700 41.124500 0
M  V30 13 H 76.140600 58.051800 41.322600 0
M  V30 14 H 76.052400 57.658400 43.709800 0
M  V30 15 H 76.698000 56.058300 43.426900 0
M  V30 16 H 74.520300 55.451500 44.164100 0
M  V30 17 H 72.500600 56.757300 43.476300 0
M  V30 18 H 73.663300 58.058500 43.724600 0
M  V30 19 H 73.674400 58.495500 41.436500 0
M  V30 20 H 72.504800 57.257500 41.183600 0
M  V30 21 R 73.404300 53.121000 41.773600 0
M  V30 END ATOM
M  V30 BEGIN BOND
M  V30 1 1 2 1
M  V30 2 1 3 2
M  V30 3 1 4 3
M  V30 4 1 5 4
M  V30 5 1 6 2
M  V30 6 1 6 5
M  V30 7 1 7 6
M  V30 8 1 8 3
M  V30 9 1 8 7
M  V30 10 1 9 1
M  V30 11 1 2 10 CFG=3
M  V30 12 1 3 11 CFG=3
M  V30 13 1 12 4
M  V30 14 1 13 4
M  V30 15 1 14 5
M  V30 16 1 15 5
M  V30 17 1 6 16 CFG=1
M  V30 18 1 17 7
M  V30 19 1 18 7
M  V30 20 1 19 8
M  V30 21 1 20 8
M  V30 22 1 21 1
M  V30 END BOND
M  V30 END CTAB
M  END
$$$$
R-group 10 (11600-1)
     RDKit          3D

  0  0  0  0  0  0  0  0  0  0999 V3000
M  V30 BEGIN CTAB
M  V30 COUNTS 13 13 0 0 1
M  V30 BEGIN ATOM
M  V30 1 C 73.910900 54.891000 41.702700 0
M  V30 2 N 74.519600 55.528900 42.761400 0
M  V30 3 C 74.660400 56.857900 42.525000 0
M  V30 4 C 74.072200 57.089800 41.325100 0
M  V30 5 C 73.672300 55.859500 40.749400 0
M  V30 6 C 72.993100 55.776300 39.401200 0
M  V30 7 H 75.105800 57.521700 43.254000 0
M  V30 8 H 73.943600 58.058500 40.885800 0
M  V30 9 H 72.969800 56.762000 38.936900 0
M  V30 10 H 73.521500 55.112100 38.719300 0
M  V30 11 H 71.962800 55.437100 39.511100 0
M  V30 12 H 74.791000 55.074300 43.620200 0
M  V30 13 R 73.605700 53.426700 41.816200 0
M  V30 END ATOM
M  V30 BEGIN BOND
M  V30 1 1 2 1
M  V30 2 1 3 2
M  V30 3 2 4 3
M  V30 4 2 5 1
M  V30 5 1 5 4
M  V30 6 1 6 5
M  V30 7 1 7 3
M  V30 8 1 8 4
M  V30 9 1 9 6
M  V30 10 1 10 6
M  V30 11 1 11 6
M  V30 12 1 12 2
M  V30 13 1 13 1
M  V30 END BOND
M  V30 END CTAB
M  END
$$$$
R-group 11 (42047-1)
     RDKit          3D

  0  0  0  0  0  0  0  0  0  0999 V3000
M  V30 BEGIN CTAB
M  V30 COUNTS 16 20 0 0 1
M  V30 BEGIN ATOM
M  V30 1 C 73.969900 55.053300 41.606200 0 CFG=1
M  V30 2 C 74.370900 56.207400 42.795000 0 CFG=2
M  V30 3 C 75.058900 57.380800 41.449800 0 CFG=1
M  V30 4 C 75.601300 56.534900 42.073100 0 CFG=1
M  V30 5 C 73.768500 56.976900 42.123900 0 CFG=1
M  V30 6 C 73.480200 55.853400 40.874200 0 CFG=1
M  V30 7 C 75.318600 55.342700 40.899500 0 CFG=2
M  V30 8 C 74.755600 56.170900 40.280600 0 CFG=1
M  V30 9 H 73.795200 56.337600 43.723200 0
M  V30 10 H 75.937400 58.022400 41.327700 0
M  V30 11 H 76.472300 56.795100 42.706300 0
M  V30 12 H 73.194000 57.813000 42.573100 0
M  V30 13 H 72.529000 55.388700 40.600500 0
M  V30 14 H 76.071200 55.102000 40.134600 0
M  V30 15 H 74.820900 56.161600 39.168000 0
M  V30 16 R 73.577200 53.531200 41.718600 0
M  V30 END ATOM
M  V30 BEGIN BOND
M  V30 1 1 2 1
M  V30 2 1 3 2
M  V30 3 1 4 3
M  V30 4 1 5 2
M  V30 5 1 5 4
M  V30 6 1 6 1
M  V30 7 1 6 5
M  V30 8 1 7 4
M  V30 9 1 7 6
M  V30 10 1 8 1
M  V30 11 1 8 3
M  V30 12 1 8 7
M  V30 13 1 2 9 CFG=1
M  V30 14 1 3 10 CFG=3
M  V30 15 1 4 11 CFG=1
M  V30 16 1 5 12 CFG=1
M  V30 17 1 6 13 CFG=3
M  V30 18 1 7 14 CFG=3
M  V30 19 1 8 15 CFG=3
M  V30 20 1 1 16 CFG=1
M  V30 END BOND
M  V30 END CTAB
M  END
$$$$
R-group 12 (2436-1)
     RDKit          3D

  0  0  0  0  0  0  0  0  0  0999 V3000
M  V30 BEGIN CTAB
M  V30 COUNTS 9 9 0 0 1
M  V30 BEGIN ATOM
M  V30 1 C 73.772500 54.912000 41.635100 0
M  V30 2 N 74.072300 55.663900 42.748200 0
M  V30 3 N 74.072000 56.993900 42.524700 0
M  V30 4 C 73.806000 57.098400 41.236300 0
M  V30 5 C 73.672500 55.832600 40.630300 0
M  V30 6 F 73.354400 55.616100 39.331000 0
M  V30 7 H 73.680300 58.056800 40.776600 0
M  V30 8 H 74.149600 55.292900 43.686800 0
M  V30 9 R 73.534800 53.433700 41.684100 0
M  V30 END ATOM
M  V30 BEGIN BOND
M  V30 1 1 2 1
M  V30 2 1 3 2
M  V30 3 2 4 3
M  V30 4 2 5 1
M  V30 5 1 5 4
M  V30 6 1 6 5
M  V30 7 1 7 4
M  V30 8 1 8 2
M  V30 9 1 9 1
M  V30 END BOND
M  V30 END CTAB
M  END
$$$$
R-group 13 (4372-1)
     RDKit          3D

  0  0  0  0  0  0  0  0  0  0999 V3000
M  V30 BEGIN CTAB
M  V30 COUNTS 12 11 0 0 1
M  V30 BEGIN ATOM
M  V30 1 C 76.159800 57.109500 42.914400 0
M  V30 2 C 74.719800 57.130900 42.398500 0
M  V30 3 C 74.517100 55.858200 41.611200 0
M  V30 4 O 75.191600 55.681000 40.602500 0
M  V30 5 N 73.672200 54.964900 42.138600 0
M  V30 6 H 76.466900 58.056700 43.314400 0
M  V30 7 H 76.282700 56.360000 43.697700 0
M  V30 8 H 76.872200 56.877400 42.123600 0
M  V30 9 H 74.537300 57.969700 41.725600 0
M  V30 10 H 74.010500 57.211500 43.222000 0
M  V30 11 H 73.202900 55.250200 42.989900 0
M  V30 12 R 73.520800 53.548200 41.835500 0
M  V30 END ATOM
M  V30 BEGIN BOND
M  V30 1 1 2 1
M  V30 2 1 3 2
M  V30 3 2 4 3
M  V30 4 1 5 3
M  V30 5 1 6 1
M  V30 6 1 7 1
M  V30 7 1 8 1
M  V30 8 1 9 2
M  V30 9 1 10 2
M  V30 10 1 11 5
M  V30 11 1 12 5
M  V30 END BOND
M  V30 END CTAB
M  END
$$$$
R-group 14 (28373-2)
     RDKit          3D

  0  0  0  0  0  0  0  0  0  0999 V3000
M  V30 BEGIN CTAB
M  V30 COUNTS 17 17 0 0 1
M  V30 BEGIN ATOM
M  V30 1 C 73.487100 54.560800 41.466100 0
M  V30 2 O 73.281600 55.029300 40.342300 0
M  V30 3 N 73.821700 55.297100 42.525200 0
M  V30 4 C 74.346500 56.642600 42.629500 0 CFG=1
M  V30 5 C 75.884900 56.613400 42.632100 0
M  V30 6 C 75.850200 56.849600 41.113600 0 CFG=2
M  V30 7 O 76.846900 57.658500 40.527300 0
M  V30 8 C 74.446400 57.451200 41.344200 0
M  V30 9 H 73.902800 57.208000 43.448700 0
M  V30 10 H 76.331800 57.444200 43.178300 0
M  V30 11 H 76.294600 55.660900 42.961200 0
M  V30 12 H 75.795200 55.908600 40.571500 0
M  V30 13 H 73.688300 57.323900 40.574800 0
M  V30 14 H 74.412000 58.457600 41.722400 0
M  V30 15 H 73.733100 54.830900 43.418900 0
M  V30 16 H 77.145100 57.223600 39.740500 0
M  V30 17 R 73.357800 53.066300 41.744900 0
M  V30 END ATOM
M  V30 BEGIN BOND
M  V30 1 2 2 1
M  V30 2 1 3 1
M  V30 3 1 4 3
M  V30 4 1 5 4
M  V30 5 1 6 5
M  V30 6 1 7 6
M  V30 7 1 8 4
M  V30 8 1 8 6
M  V30 9 1 4 9 CFG=1
M  V30 10 1 10 5
M  V30 11 1 11 5
M  V30 12 1 6 12 CFG=3
M  V30 13 1 13 8
M  V30 14 1 14 8
M  V30 15 1 15 3
M  V30 16 1 16 7
M  V30 17 1 17 1
M  V30 END BOND
M  V30 END CTAB
M  END
$$$$
R-group 15 (39967-1)
     RDKit          3D

  0  0  0  0  0  0  0  0  0  0999 V3000
M  V30 BEGIN CTAB
M  V30 COUNTS 16 17 0 0 1
M  V30 BEGIN ATOM
M  V30 1 N 73.672300 54.925100 42.308700 0
M  V30 2 C 74.944000 55.633000 42.291300 0 CFG=1
M  V30 3 C 75.338900 56.481100 41.092300 0 CFG=1
M  V30 4 C 74.396000 56.919900 39.995600 0
M  V30 5 O 73.260500 57.466300 40.657200 0
M  V30 6 C 73.560100 57.833200 42.005800 0
M  V30 7 C 74.844000 57.128000 42.343600 0 CFG=1
M  V30 8 H 73.271600 54.947700 43.243600 0
M  V30 9 H 75.761000 55.240800 42.885300 0
M  V30 10 H 76.400600 56.530100 40.858900 0
M  V30 11 H 74.097600 56.108000 39.338900 0
M  V30 12 H 74.875200 57.657900 39.359400 0
M  V30 13 H 72.767600 57.523000 42.684800 0
M  V30 14 H 73.672200 58.902000 42.116300 0
M  V30 15 H 75.541100 57.654700 42.994500 0
M  V30 16 R 73.685300 53.540900 41.859300 0
M  V30 END ATOM
M  V30 BEGIN BOND
M  V30 1 1 2 1
M  V30 2 1 3 2
M  V30 3 1 4 3
M  V30 4 1 5 4
M  V30 5 1 6 5
M  V30 6 1 7 2
M  V30 7 1 7 3
M  V30 8 1 7 6
M  V30 9 1 8 1
M  V30 10 1 2 9 CFG=1
M  V30 11 1 3 10 CFG=3
M  V30 12 1 11 4
M  V30 13 1 12 4
M  V30 14 1 13 6
M  V30 15 1 14 6
M  V30 16 1 7 15 CFG=1
M  V30 17 1 16 1
M  V30 END BOND
M  V30 END CTAB
M  END
$$$$
R-group 16 (43655-1)
     RDKit          3D

  0  0  0  0  0  0  0  0  0  0999 V3000
M  V30 BEGIN CTAB
M  V30 COUNTS 13 13 0 0 1
M  V30 BEGIN ATOM
M  V30 1 C 72.454700 53.949900 42.145800 0
M  V30 2 N 73.379000 54.982600 42.524600 0
M  V30 3 C 74.140100 55.880800 41.868700 0
M  V30 4 N 73.853400 56.251500 40.642500 0
M  V30 5 C 74.949000 56.858000 40.103800 0
M  V30 6 C 76.036000 56.986400 40.927400 0
M  V30 7 S 75.661300 56.457600 42.523300 0
M  V30 8 H 71.720600 54.328400 41.434900 0
M  V30 9 H 71.897200 53.656700 43.035800 0
M  V30 10 H 74.872400 57.175700 39.075400 0
M  V30 11 H 76.998800 57.430400 40.708100 0
M  V30 12 H 73.453600 55.012300 43.542200 0
M  V30 13 R 73.206600 52.750800 41.576400 0
M  V30 END ATOM
M  V30 BEGIN BOND
M  V30 1 1 2 1
M  V30 2 1 3 2
M  V30 3 2 4 3
M  V30 4 1 5 4
M  V30 5 2 6 5
M  V30 6 1 7 3
M  V30 7 1 7 6
M  V30 8 1 8 1
M  V30 9 1 9 1
M  V30 10 1 10 5
M  V30 11 1 11 6
M  V30 12 1 12 2
M  V30 13 1 13 1
M  V30 END BOND
M  V30 END CTAB
M  END
$$$$
R-group 17 (14349-1)
     RDKit          3D

  0  0  0  0  0  0  0  0  0  0999 V3000
M  V30 BEGIN CTAB
M  V30 COUNTS 15 15 0 0 1
M  V30 BEGIN ATOM
M  V30 1 C 74.212400 54.773600 41.749800 0
M  V30 2 N 75.267000 55.240200 41.093200 0
M  V30 3 C 75.387800 56.562600 41.492600 0
M  V30 4 C 76.586800 57.348700 41.068600 0
M  V30 5 C 74.327800 56.857600 42.323400 0
M  V30 6 C 73.827800 58.058000 42.990400 0
M  V30 7 N 73.672400 55.683700 42.524800 0
M  V30 8 H 76.413500 58.375600 40.775400 0
M  V30 9 H 77.274000 57.399000 41.904400 0
M  V30 10 H 77.088600 56.868500 40.225900 0
M  V30 11 H 74.539600 58.451500 43.718800 0
M  V30 12 H 73.621200 58.820700 42.238300 0
M  V30 13 H 72.890400 57.870000 43.513600 0
M  V30 14 H 72.908600 55.524500 43.171200 0
M  V30 15 R 73.716200 53.384800 41.806400 0
M  V30 END ATOM
M  V30 BEGIN BOND
M  V30 1 2 2 1
M  V30 2 1 3 2
M  V30 3 1 4 3
M  V30 4 2 5 3
M  V30 5 1 6 5
M  V30 6 1 7 1
M  V30 7 1 7 5
M  V30 8 1 8 4
M  V30 9 1 9 4
M  V30 10 1 10 4
M  V30 11 1 11 6
M  V30 12 1 12 6
M  V30 13 1 13 6
M  V30 14 1 14 7
M  V30 15 1 15 1
M  V30 END BOND
M  V30 END CTAB
M  END
$$$$
R-group 18 (29038-1)
     RDKit          3D

  0  0  0  0  0  0  0  0  0  0999 V3000
M  V30 BEGIN CTAB
M  V30 COUNTS 13 13 0 0 1
M  V30 BEGIN ATOM
M  V30 1 C 72.890300 54.441700 41.932500 0
M  V30 2 C 74.007700 55.421300 41.807100 0
M  V30 3 C 74.574000 56.059200 40.737400 0
M  V30 4 C 75.648400 56.856800 41.224400 0
M  V30 5 C 75.673000 56.732100 42.582700 0
M  V30 6 N 74.693000 55.831400 42.920600 0
M  V30 7 H 72.086700 54.682600 41.233600 0
M  V30 8 H 72.445200 54.500900 42.924200 0
M  V30 9 H 74.267100 55.955600 39.708100 0
M  V30 10 H 76.314800 57.482100 40.642900 0
M  V30 11 H 76.302700 57.190400 43.331900 0
M  V30 12 H 74.470700 55.530300 43.863200 0
M  V30 13 R 73.308400 53.005800 41.613800 0
M  V30 END ATOM
M  V30 BEGIN BOND
M  V30 1 1 2 1
M  V30 2 2 3 2
M  V30 3 1 4 3
M  V30 4 2 5 4
M  V30 5 1 6 2
M  V30 6 1 6 5
M  V30 7 1 7 1
M  V30 8 1 8 1
M  V30 9 1 9 3
M  V30 10 1 10 4
M  V30 11 1 11 5
M  V30 12 1 12 6
M  V30 13 1 13 1
M  V30 END BOND
M  V30 END CTAB
M  END
$$$$
R-group 19 (3511-1)
     RDKit          3D

  0  0  0  0  0  0  0  0  0  0999 V3000
M  V30 BEGIN CTAB
M  V30 COUNTS 15 15 0 0 1
M  V30 BEGIN ATOM
M  V30 1 N 73.564300 54.959000 42.524700 0
M  V30 2 C 74.259100 56.205100 42.178500 0
M  V30 3 C 75.762000 55.990400 42.254100 0
M  V30 4 C 73.755900 56.953900 40.939500 0
M  V30 5 O 73.272000 58.058000 41.724600 0
M  V30 6 C 73.759600 57.440400 42.927800 0
M  V30 7 H 73.271900 54.875700 43.506600 0
M  V30 8 H 76.310800 56.907000 42.034800 0
M  V30 9 H 76.072100 55.658200 43.244800 0
M  V30 10 H 76.072500 55.251900 41.523100 0
M  V30 11 H 74.544200 57.257700 40.249400 0
M  V30 12 H 72.943900 56.457300 40.407900 0
M  V30 13 H 72.957900 57.239800 43.640700 0
M  V30 14 H 74.550600 58.032500 43.387300 0
M  V30 15 R 73.736000 53.668100 41.842900 0
M  V30 END ATOM
M  V30 BEGIN BOND
M  V30 1 1 2 1
M  V30 2 1 3 2
M  V30 3 1 4 2
M  V30 4 1 5 4
M  V30 5 1 6 2
M  V30 6 1 6 5
M  V30 7 1 7 1
M  V30 8 1 8 3
M  V30 9 1 9 3
M  V30 10 1 10 3
M  V30 11 1 11 4
M  V30 12 1 12 4
M  V30 13 1 13 6
M  V30 14 1 14 6
M  V30 15 1 15 1
M  V30 END BOND
M  V30 END CTAB
M  END
$$$$
R-group 20 (7509-1)
     RDKit          3D

  0  0  0  0  0  0  0  0  0  0999 V3000
M  V30 BEGIN CTAB
M  V30 COUNTS 12 12 0 0 1
M  V30 BEGIN ATOM
M  V30 1 N 72.886500 54.285100 42.123500 0
M  V30 2 C 73.819900 55.286900 41.862900 0
M  V30 3 C 74.205100 56.085700 42.924700 0
M  V30 4 C 75.366600 56.857500 42.808300 0
M  V30 5 C 75.992900 56.858000 41.563100 0
M  V30 6 N 75.460100 56.201300 40.525000 0
M  V30 7 N 74.393100 55.416600 40.658900 0
M  V30 8 H 72.516100 54.353200 43.068900 0
M  V30 9 H 73.675700 56.020800 43.868700 0
M  V30 10 H 75.752900 57.435600 43.635100 0
M  V30 11 H 76.887500 57.435700 41.378900 0
M  V30 12 R 73.271200 52.937800 41.773400 0
M  V30 END ATOM
M  V30 BEGIN BOND
M  V30 1 1 2 1
M  V30 2 2 3 2
M  V30 3 1 4 3
M  V30 4 2 5 4
M  V30 5 1 6 5
M  V30 6 1 7 2
M  V30 7 2 7 6
M  V30 8 1 8 1
M  V30 9 1 9 3
M  V30 10 1 10 4
M  V30 11 1 11 5
M  V30 12 1 12 1
M  V30 END BOND
M  V30 END CTAB
M  END
$$$$
R-group 21 (32010-1)
     RDKit          3D

  0  0  0  0  0  0  0  0  0  0999 V3000
M  V30 BEGIN CTAB
M  V30 COUNTS 12 12 0 0 1
M  V30 BEGIN ATOM
M  V30 1 C 72.393500 54.015300 42.119700 0
M  V30 2 N 73.275700 55.062600 42.524600 0
M  V30 3 C 74.071600 55.935300 41.864100 0
M  V30 4 N 73.805900 56.324800 40.627000 0
M  V30 5 N 74.914200 56.857800 40.079200 0
M  V30 6 C 75.948600 56.858700 40.924700 0
M  V30 7 S 75.580300 56.452200 42.561700 0
M  V30 8 H 71.697400 54.451600 41.398700 0
M  V30 9 H 71.804800 53.700300 42.982000 0
M  V30 10 H 76.895000 57.265500 40.599900 0
M  V30 11 H 73.344400 55.074200 43.542800 0
M  V30 12 R 73.187100 52.823300 41.553400 0
M  V30 END ATOM
M  V30 BEGIN BOND
M  V30 1 1 2 1
M  V30 2 1 3 2
M  V30 3 2 4 3
M  V30 4 1 5 4
M  V30 5 2 6 5
M  V30 6 1 7 3
M  V30 7 1 7 6
M  V30 8 1 8 1
M  V30 9 1 9 1
M  V30 10 1 10 6
M  V30 11 1 11 2
M  V30 12 1 12 1
M  V30 END BOND
M  V30 END CTAB
M  END
$$$$
R-group 22 (16506-1)
     RDKit          3D

  0  0  0  0  0  0  0  0  0  0999 V3000
M  V30 BEGIN CTAB
M  V30 COUNTS 9 9 0 0 1
M  V30 BEGIN ATOM
M  V30 1 N 73.113300 54.453800 42.124600 0
M  V30 2 C 74.092900 55.409400 41.916000 0
M  V30 3 N 74.862500 55.771800 42.924500 0
M  V30 4 C 75.753100 56.668500 42.488600 0
M  V30 5 N 75.813200 56.920700 41.170400 0
M  V30 6 S 74.466500 56.239800 40.436500 0
M  V30 7 H 76.471400 57.108500 43.174400 0
M  V30 8 H 72.835900 54.447500 43.104900 0
M  V30 9 R 73.447600 53.110600 41.705100 0
M  V30 END ATOM
M  V30 BEGIN BOND
M  V30 1 1 2 1
M  V30 2 2 3 2
M  V30 3 1 4 3
M  V30 4 2 5 4
M  V30 5 1 6 2
M  V30 6 1 6 5
M  V30 7 1 7 4
M  V30 8 1 8 1
M  V30 9 1 9 1
M  V30 END BOND
M  V30 END CTAB
M  END
$$$$
R-group 23 (31007-1)
     RDKit          3D

  0  0  0  0  0  0  0  0  0  0999 V3000
M  V30 BEGIN CTAB
M  V30 COUNTS 21 21 0 0 1
M  V30 BEGIN ATOM
M  V30 1 C 75.729500 57.370000 43.317400 0
M  V30 2 C 74.413200 57.436400 42.531500 0
M  V30 3 C 74.565700 56.784200 41.154600 0 CFG=2
M  V30 4 C 73.273300 56.858300 40.313600 0
M  V30 5 C 72.769400 55.414100 40.210900 0
M  V30 6 C 73.423200 54.723100 41.434000 0 CFG=2
M  V30 7 C 74.835200 55.296100 41.339200 0
M  V30 8 H 75.671100 58.066200 44.124700 0
M  V30 9 H 75.931100 56.393700 43.752900 0
M  V30 10 H 76.584200 57.656900 42.704700 0
M  V30 11 H 74.070700 58.457900 42.397100 0
M  V30 12 H 73.631100 56.965600 43.127900 0
M  V30 13 H 75.387300 57.257000 40.617400 0
M  V30 14 H 73.462100 57.270700 39.319900 0
M  V30 15 H 72.527600 57.498700 40.790000 0
M  V30 16 H 73.161700 55.007900 39.280000 0
M  V30 17 H 71.683800 55.337400 40.126500 0
M  V30 18 H 72.942800 55.115600 42.331300 0
M  V30 19 H 75.449300 55.050400 42.198600 0
M  V30 20 H 75.377400 54.921600 40.478700 0
M  V30 21 R 73.337700 53.190300 41.594000 0
M  V30 END ATOM
M  V30 BEGIN BOND
M  V30 1 1 2 1
M  V30 2 1 3 2
M  V30 3 1 4 3
M  V30 4 1 5 4
M  V30 5 1 6 5
M  V30 6 1 7 3
M  V30 7 1 7 6
M  V30 8 1 8 1
M  V30 9 1 9 1
M  V30 10 1 10 1
M  V30 11 1 11 2
M  V30 12 1 12 2
M  V30 13 1 3 13 CFG=3
M  V30 14 1 14 4
M  V30 15 1 15 4
M  V30 16 1 16 5
M  V30 17 1 17 5
M  V30 18 1 6 18 CFG=1
M  V30 19 1 19 7
M  V30 20 1 20 7
M  V30 21 1 21 6
M  V30 END BOND
M  V30 END CTAB
M  END
$$$$
R-group 24 (2389-1)
     RDKit          3D

  0  0  0  0  0  0  0  0  0  0999 V3000
M  V30 BEGIN CTAB
M  V30 COUNTS 12 12 0 0 1
M  V30 BEGIN ATOM
M  V30 1 C 73.881800 54.899800 41.663700 0
M  V30 2 N 74.473200 55.550800 42.720400 0
M  V30 3 N 74.638900 56.858000 42.524500 0
M  V30 4 C 74.106400 57.052200 41.342200 0
M  V30 5 C 73.672200 55.865800 40.705100 0
M  V30 6 C 73.024800 55.841000 39.344300 0
M  V30 7 H 74.050700 58.057900 40.967200 0
M  V30 8 H 73.026800 56.831900 38.887400 0
M  V30 9 H 73.535200 55.183600 38.642300 0
M  V30 10 H 71.981500 55.530700 39.396600 0
M  V30 11 H 74.738300 55.115100 43.591400 0
M  V30 12 R 73.559800 53.434100 41.757300 0
M  V30 END ATOM
M  V30 BEGIN BOND
M  V30 1 1 2 1
M  V30 2 1 3 2
M  V30 3 2 4 3
M  V30 4 2 5 1
M  V30 5 1 5 4
M  V30 6 1 6 5
M  V30 7 1 7 4
M  V30 8 1 8 6
M  V30 9 1 9 6
M  V30 10 1 10 6
M  V30 11 1 11 2
M  V30 12 1 12 1
M  V30 END BOND
M  V30 END CTAB
M  END
$$$$
R-group 25 (3536-1)
     RDKit          3D

  0  0  0  0  0  0  0  0  0  0999 V3000
M  V30 BEGIN CTAB
M  V30 COUNTS 12 12 0 0 1
M  V30 BEGIN ATOM
M  V30 1 N 73.531400 54.772900 42.524300 0
M  V30 2 C 74.477400 55.838400 42.251900 0
M  V30 3 C 74.335000 56.683800 40.981500 0
M  V30 4 O 73.668200 57.718000 41.725700 0
M  V30 5 C 74.181300 57.153800 42.950300 0
M  V30 6 H 73.262800 54.728000 43.517300 0
M  V30 7 H 75.507300 55.521100 42.425500 0
M  V30 8 H 75.286800 57.022600 40.565300 0
M  V30 9 H 73.686500 56.275700 40.206600 0
M  V30 10 H 73.414800 57.088200 43.723600 0
M  V30 11 H 75.074400 57.657200 43.320500 0
M  V30 12 R 73.662200 53.460500 41.910600 0
M  V30 END ATOM
M  V30 BEGIN BOND
M  V30 1 1 2 1
M  V30 2 1 3 2
M  V30 3 1 4 3
M  V30 4 1 5 2
M  V30 5 1 5 4
M  V30 6 1 6 1
M  V30 7 1 7 2
M  V30 8 1 8 3
M  V30 9 1 9 3
M  V30 10 1 10 5
M  V30 11 1 11 5
M  V30 12 1 12 1
M  V30 END BOND
M  V30 END CTAB
M  END
$$$$
R-group 26 (719-1)
     RDKit          3D

  0  0  0  0  0  0  0  0  0  0999 V3000
M  V30 BEGIN CTAB
M  V30 COUNTS 10 10 0 0 1
M  V30 BEGIN ATOM
M  V30 1 C 74.107700 55.333500 41.802900 0
M  V30 2 O 73.672300 56.058000 42.924700 0
M  V30 3 C 75.401800 55.910400 41.272300 0
M  V30 4 C 74.097200 56.254800 40.594300 0
M  V30 5 H 75.888300 56.692600 41.852800 0
M  V30 6 H 76.079000 55.258000 40.735400 0
M  V30 7 H 73.945300 55.846200 39.598900 0
M  V30 8 H 73.723200 57.268800 40.725900 0
M  V30 9 H 73.269500 55.463000 43.550500 0
M  V30 10 R 73.715800 53.840000 41.806900 0
M  V30 END ATOM
M  V30 BEGIN BOND
M  V30 1 1 2 1
M  V30 2 1 3 1
M  V30 3 1 4 1
M  V30 4 1 4 3
M  V30 5 1 5 3
M  V30 6 1 6 3
M  V30 7 1 7 4
M  V30 8 1 8 4
M  V30 9 1 9 2
M  V30 10 1 10 1
M  V30 END BOND
M  V30 END CTAB
M  END
$$$$
R-group 27 (786-1)
     RDKit          3D

  0  0  0  0  0  0  0  0  0  0999 V3000
M  V30 BEGIN CTAB
M  V30 COUNTS 9 9 0 0 1
M  V30 BEGIN ATOM
M  V30 1 C 74.191000 55.050000 41.965300 0
M  V30 2 N 75.205300 55.524500 41.252000 0
M  V30 3 C 75.299700 56.857900 41.607700 0
M  V30 4 C 74.320800 57.160300 42.524700 0
M  V30 5 N 73.672200 55.976200 42.769100 0
M  V30 6 H 76.049500 57.500500 41.168900 0
M  V30 7 H 74.073300 58.074300 43.040400 0
M  V30 8 H 72.942800 55.810200 43.454900 0
M  V30 9 R 73.717200 53.633100 41.962000 0
M  V30 END ATOM
M  V30 BEGIN BOND
M  V30 1 2 2 1
M  V30 2 1 3 2
M  V30 3 2 4 3
M  V30 4 1 5 1
M  V30 5 1 5 4
M  V30 6 1 6 3
M  V30 7 1 7 4
M  V30 8 1 8 5
M  V30 9 1 9 1
M  V30 END BOND
M  V30 END CTAB
M  END
$$$$
R-group 28 (22674-4)
     RDKit          3D

  0  0  0  0  0  0  0  0  0  0999 V3000
M  V30 BEGIN CTAB
M  V30 COUNTS 17 17 0 0 1
M  V30 BEGIN ATOM
M  V30 1 C 73.382100 54.610200 41.782100 0
M  V30 2 C 72.794700 55.293200 40.524700 0
M  V30 3 C 73.347200 56.727600 40.520300 0 CFG=2
M  V30 4 O 74.082900 56.858100 39.324900 0
M  V30 5 C 74.336200 56.804200 41.699300 0 CFG=1
M  V30 6 O 73.671400 57.288000 42.842900 0
M  V30 7 C 74.708900 55.354000 42.005500 0
M  V30 8 H 72.734900 54.871300 42.621100 0
M  V30 9 H 73.097600 54.821900 39.593300 0
M  V30 10 H 71.712700 55.221900 40.507400 0
M  V30 11 H 72.573100 57.495500 40.562200 0
M  V30 12 H 75.202400 57.433300 41.502300 0
M  V30 13 H 75.105800 55.232800 43.015500 0
M  V30 14 H 75.471400 55.013900 41.303300 0
M  V30 15 H 73.670700 57.475500 38.729600 0
M  V30 16 H 73.030900 56.642800 43.110400 0
M  V30 17 R 73.423200 53.065900 41.776800 0
M  V30 END ATOM
M  V30 BEGIN BOND
M  V30 1 1 2 1
M  V30 2 1 3 2
M  V30 3 1 4 3
M  V30 4 1 5 3
M  V30 5 1 6 5
M  V30 6 1 7 1
M  V30 7 1 7 5
M  V30 8 1 8 1
M  V30 9 1 9 2
M  V30 10 1 10 2
M  V30 11 1 3 11 CFG=1
M  V30 12 1 5 12 CFG=3
M  V30 13 1 13 7
M  V30 14 1 14 7
M  V30 15 1 15 4
M  V30 16 1 16 6
M  V30 17 1 17 1
M  V30 END BOND
M  V30 END CTAB
M  END
$$$$
R-group 29 (38012-1)
     RDKit          3D

  0  0  0  0  0  0  0  0  0  0999 V3000
M  V30 BEGIN CTAB
M  V30 COUNTS 21 20 0 0 1
M  V30 BEGIN ATOM
M  V30 1 C 73.759000 54.803800 41.401200 0
M  V30 2 O 74.022700 55.316300 40.311500 0
M  V30 3 N 73.672000 55.497600 42.525600 0
M  V30 4 C 74.068200 56.852100 42.818000 0 CFG=2
M  V30 5 C 73.532800 57.853600 41.786700 0
M  V30 6 C 75.577500 56.916800 43.148900 0
M  V30 7 C 76.429300 57.036200 41.871700 0
M  V30 8 C 76.073600 55.718000 44.018400 0
M  V30 9 H 73.517500 57.085700 43.724800 0
M  V30 10 H 73.672800 58.869600 42.125000 0
M  V30 11 H 73.985900 57.743300 40.803100 0
M  V30 12 H 72.469500 57.720200 41.634700 0
M  V30 13 H 75.697000 57.830400 43.724200 0
M  V30 14 H 76.422400 56.114100 41.290500 0
M  V30 15 H 77.457200 57.261100 42.113500 0
M  V30 16 H 76.119200 57.848500 41.217600 0
M  V30 17 H 75.816800 54.778100 43.550800 0
M  V30 18 H 77.155800 55.658000 44.129100 0
M  V30 19 H 75.672300 55.658000 45.031500 0
M  V30 20 H 73.362100 54.983700 43.348800 0
M  V30 21 R 73.481400 53.311300 41.587900 0
M  V30 END ATOM
M  V30 BEGIN BOND
M  V30 1 2 2 1
M  V30 2 1 3 1
M  V30 3 1 4 3
M  V30 4 1 5 4
M  V30 5 1 6 4
M  V30 6 1 7 6
M  V30 7 1 8 6
M  V30 8 1 4 9 CFG=1
M  V30 9 1 10 5
M  V30 10 1 11 5
M  V30 11 1 12 5
M  V30 12 1 13 6
M  V30 13 1 14 7
M  V30 14 1 15 7
M  V30 15 1 16 7
M  V30 16 1 17 8
M  V30 17 1 18 8
M  V30 18 1 19 8
M  V30 19 1 20 3
M  V30 20 1 21 1
M  V30 END BOND
M  V30 END CTAB
M  END
$$$$
R-group 30 (13812-1)
     RDKit          3D

  0  0  0  0  0  0  0  0  0  0999 V3000
M  V30 BEGIN CTAB
M  V30 COUNTS 14 14 0 0 1
M  V30 BEGIN ATOM
M  V30 1 N 73.077100 54.407400 41.968700 0
M  V30 2 C 74.146300 55.253900 41.756700 0
M  V30 3 C 75.227600 55.257800 40.924600 0
M  V30 4 C 75.954400 56.396100 41.328700 0
M  V30 5 N 75.487800 56.860400 42.448500 0
M  V30 6 N 74.251500 56.378200 42.525300 0
M  V30 7 C 73.273300 57.077500 43.325400 0
M  V30 8 H 75.527600 54.581400 40.152400 0
M  V30 9 H 76.872500 56.791500 40.934800 0
M  V30 10 H 72.877900 56.456800 44.125600 0
M  V30 11 H 73.707500 57.991500 43.724600 0
M  V30 12 H 72.472400 57.395000 42.666200 0
M  V30 13 H 72.545000 54.669500 42.790400 0
M  V30 14 R 73.230700 52.981100 41.847700 0
M  V30 END ATOM
M  V30 BEGIN BOND
M  V30 1 1 2 1
M  V30 2 2 3 2
M  V30 3 1 4 3
M  V30 4 2 5 4
M  V30 5 1 6 2
M  V30 6 1 6 5
M  V30 7 1 7 6
M  V30 8 1 8 3
M  V30 9 1 9 4
M  V30 10 1 10 7
M  V30 11 1 11 7
M  V30 12 1 12 7
M  V30 13 1 13 1
M  V30 14 1 14 1
M  V30 END BOND
M  V30 END CTAB
M  END
$$$$
R-group 31 (13563-1)
     RDKit          3D

  0  0  0  0  0  0  0  0  0  0999 V3000
M  V30 BEGIN CTAB
M  V30 COUNTS 11 11 0 0 1
M  V30 BEGIN ATOM
M  V30 1 N 73.018500 54.328400 42.123800 0
M  V30 2 C 74.010100 55.291400 41.978200 0
M  V30 3 C 74.917600 55.426000 40.893400 0
M  V30 4 C 75.694200 56.472400 41.276000 0
M  V30 5 N 75.258300 56.857700 42.519200 0
M  V30 6 N 74.178600 56.177000 42.923900 0
M  V30 7 H 75.031900 54.852700 39.990600 0
M  V30 8 H 76.539800 56.942400 40.791500 0
M  V30 9 H 72.582700 54.416800 43.040100 0
M  V30 10 H 75.656900 57.605400 43.076300 0
M  V30 11 R 73.336200 52.970500 41.766300 0
M  V30 END ATOM
M  V30 BEGIN BOND
M  V30 1 1 2 1
M  V30 2 1 3 2
M  V30 3 2 4 3
M  V30 4 1 5 4
M  V30 5 2 6 2
M  V30 6 1 6 5
M  V30 7 1 7 3
M  V30 8 1 8 4
M  V30 9 1 9 1
M  V30 10 1 10 5
M  V30 11 1 11 1
M  V30 END BOND
M  V30 END CTAB
M  END
$$$$
R-group 32 (7511-2)
     RDKit          3D

  0  0  0  0  0  0  0  0  0  0999 V3000
M  V30 BEGIN CTAB
M  V30 COUNTS 16 16 0 0 1
M  V30 BEGIN ATOM
M  V30 1 N 73.199200 54.379000 42.124800 0
M  V30 2 C 74.077400 55.369900 42.002400 0
M  V30 3 O 75.084600 55.321900 41.295200 0
M  V30 4 C 73.689100 56.533100 42.821000 0 CFG=1
M  V30 5 C 74.659100 57.657900 42.797200 0
M  V30 6 C 73.315400 57.816300 42.111000 0 CFG=1
M  V30 7 C 73.146600 57.856200 40.598300 0
M  V30 8 H 73.144300 56.333300 43.742200 0
M  V30 9 H 74.826900 58.196100 43.724000 0
M  V30 10 H 75.538800 57.594200 42.158100 0
M  V30 11 H 72.566900 58.408300 42.630400 0
M  V30 12 H 74.063900 57.562600 40.086800 0
M  V30 13 H 72.344300 57.187500 40.292200 0
M  V30 14 H 72.871800 58.857800 40.278800 0
M  V30 15 H 72.447100 54.525300 42.787700 0
M  V30 16 R 73.363000 53.035500 41.649200 0
M  V30 END ATOM
M  V30 BEGIN BOND
M  V30 1 1 2 1
M  V30 2 2 3 2
M  V30 3 1 4 2
M  V30 4 1 5 4
M  V30 5 1 6 4
M  V30 6 1 6 5
M  V30 7 1 7 6
M  V30 8 1 4 8 CFG=1
M  V30 9 1 9 5
M  V30 10 1 10 5
M  V30 11 1 6 11 CFG=1
M  V30 12 1 12 7
M  V30 13 1 13 7
M  V30 14 1 14 7
M  V30 15 1 15 1
M  V30 16 1 16 1
M  V30 END BOND
M  V30 END CTAB
M  END
$$$$
R-group 33 (3450-2)
     RDKit          3D

  0  0  0  0  0  0  0  0  0  0999 V3000
M  V30 BEGIN CTAB
M  V30 COUNTS 12 12 0 0 1
M  V30 BEGIN ATOM
M  V30 1 N 73.672400 54.998600 42.520700 0
M  V30 2 C 74.868400 55.832200 42.608700 0 CFG=1
M  V30 3 C 75.175400 56.882000 41.565700 0
M  V30 4 C 74.665200 57.286400 42.929800 0 CFG=1
M  V30 5 O 73.297500 57.658200 42.924500 0
M  V30 6 H 73.272100 54.854100 43.457900 0
M  V30 7 H 75.689700 55.331200 43.114500 0
M  V30 8 H 76.222000 57.082100 41.347200 0
M  V30 9 H 74.493700 56.976600 40.723300 0
M  V30 10 H 75.302100 57.757400 43.682300 0
M  V30 11 H 72.841700 57.096200 43.539700 0
M  V30 12 R 73.768100 53.713400 41.833200 0
M  V30 END ATOM
M  V30 BEGIN BOND
M  V30 1 1 2 1
M  V30 2 1 3 2
M  V30 3 1 4 2
M  V30 4 1 4 3
M  V30 5 1 5 4
M  V30 6 1 6 1
M  V30 7 1 2 7 CFG=1
M  V30 8 1 8 3
M  V30 9 1 9 3
M  V30 10 1 4 10 CFG=1
M  V30 11 1 11 5
M  V30 12 1 12 1
M  V30 END BOND
M  V30 END CTAB
M  END
$$$$
R-group 34 (43315-1)
     RDKit          3D

  0  0  0  0  0  0  0  0  0  0999 V3000
M  V30 BEGIN CTAB
M  V30 COUNTS 19 23 0 0 1
M  V30 BEGIN ATOM
M  V30 1 C 72.719800 54.309100 41.974700 0
M  V30 2 C 73.706900 55.533500 41.877300 0 CFG=2
M  V30 3 C 73.979200 56.879300 42.881800 0 CFG=2
M  V30 4 C 75.604100 57.258400 41.953400 0 CFG=1
M  V30 5 C 75.389200 56.613900 42.929900 0 CFG=1
M  V30 6 C 74.126700 57.550600 41.893800 0 CFG=1
M  V30 7 C 73.926600 56.167400 40.904700 0 CFG=1
M  V30 8 C 75.211600 55.219100 41.970100 0 CFG=2
M  V30 9 C 75.344200 55.870000 41.006700 0 CFG=1
M  V30 10 H 71.831800 54.457900 41.360000 0
M  V30 11 H 72.289200 54.229200 42.955500 0
M  V30 12 H 73.266100 57.434000 43.517600 0
M  V30 13 H 76.594900 57.656600 42.200500 0
M  V30 14 H 76.038200 56.857300 43.799600 0
M  V30 15 H 73.542300 58.483500 41.983500 0
M  V30 16 H 73.065200 55.913600 40.267600 0
M  V30 17 H 76.059300 54.564700 41.772000 0
M  V30 18 H 75.866000 55.438900 40.125300 0
M  V30 19 R 73.263300 52.950300 41.531900 0
M  V30 END ATOM
M  V30 BEGIN BOND
M  V30 1 1 2 1 CFG=3
M  V30 2 1 3 2
M  V30 3 1 4 3
M  V30 4 1 5 4
M  V30 5 1 6 3
M  V30 6 1 6 5
M  V30 7 1 7 2
M  V30 8 1 7 6
M  V30 9 1 8 5
M  V30 10 1 8 7
M  V30 11 1 9 2
M  V30 12 1 9 4
M  V30 13 1 9 8
M  V30 14 1 10 1
M  V30 15 1 11 1
M  V30 16 1 3 12 CFG=1
M  V30 17 1 4 13 CFG=1
M  V30 18 1 5 14 CFG=1
M  V30 19 1 6 15 CFG=3
M  V30 20 1 7 16 CFG=3
M  V30 21 1 8 17 CFG=1
M  V30 22 1 9 18 CFG=3
M  V30 23 1 19 1
M  V30 END BOND
M  V30 END CTAB
M  END
$$$$
R-group 35 (1842-1)
     RDKit          3D

  0  0  0  0  0  0  0  0  0  0999 V3000
M  V30 BEGIN CTAB
M  V30 COUNTS 9 9 0 0 1
M  V30 BEGIN ATOM
M  V30 1 C 73.694200 54.782800 41.506700 0
M  V30 2 C 73.491800 55.522800 40.290500 0
M  V30 3 C 73.677100 56.861600 40.444100 0
M  V30 4 S 74.072100 57.257900 42.087100 0
M  V30 5 C 74.071600 55.598700 42.535100 0
M  V30 6 H 73.200500 55.085900 39.348100 0
M  V30 7 H 73.586300 57.641200 39.697500 0
M  V30 8 H 74.265600 55.333800 43.565000 0
M  V30 9 R 73.493800 53.303500 41.674500 0
M  V30 END ATOM
M  V30 BEGIN BOND
M  V30 1 1 2 1
M  V30 2 2 3 2
M  V30 3 1 4 3
M  V30 4 2 5 1
M  V30 5 1 5 4
M  V30 6 1 6 2
M  V30 7 1 7 3
M  V30 8 1 8 5
M  V30 9 1 9 1
M  V30 END BOND
M  V30 END CTAB
M  END
$$$$
R-group 36 (348-1)
     RDKit          3D

  0  0  0  0  0  0  0  0  0  0999 V3000
M  V30 BEGIN CTAB
M  V30 COUNTS 9 8 0 0 1
M  V30 BEGIN ATOM
M  V30 1 C 73.975000 57.474100 42.917300 0
M  V30 2 C 74.460400 56.187900 42.252000 0
M  V30 3 O 75.491400 56.196800 41.583800 0
M  V30 4 N 73.673600 55.110000 42.418600 0
M  V30 5 H 73.271400 57.262800 43.724100 0
M  V30 6 H 74.804200 58.051400 43.326400 0
M  V30 7 H 73.465300 58.096800 42.181700 0
M  V30 8 H 72.918200 55.210400 43.088200 0
M  V30 9 R 73.745600 53.790100 41.777200 0
M  V30 END ATOM
M  V30 BEGIN BOND
M  V30 1 1 2 1
M  V30 2 2 3 2
M  V30 3 1 4 2
M  V30 4 1 5 1
M  V30 5 1 6 1
M  V30 6 1 7 1
M  V30 7 1 8 4
M  V30 8 1 9 4
M  V30 END BOND
M  V30 END CTAB
M  END
$$$$
R-group 37 (2103-1)
     RDKit          3D

  0  0  0  0  0  0  0  0  0  0999 V3000
M  V30 BEGIN CTAB
M  V30 COUNTS 13 13 0 0 1
M  V30 BEGIN ATOM
M  V30 1 C 74.120400 55.370100 41.621400 0
M  V30 2 O 74.087800 55.884600 42.924700 0
M  V30 3 C 75.406100 55.787900 40.866800 0
M  V30 4 C 74.565500 56.367500 39.726600 0
M  V30 5 C 73.352600 56.302100 40.647500 0
M  V30 6 H 75.969000 56.561900 41.392800 0
M  V30 7 H 76.071900 54.979900 40.570900 0
M  V30 8 H 74.846700 57.376600 39.424500 0
M  V30 9 H 74.470100 55.716400 38.859400 0
M  V30 10 H 72.463600 55.901200 40.166900 0
M  V30 11 H 73.125700 57.275700 41.083800 0
M  V30 12 H 73.330100 55.521500 43.371400 0
M  V30 13 R 73.732800 53.856500 41.758800 0
M  V30 END ATOM
M  V30 BEGIN BOND
M  V30 1 1 2 1
M  V30 2 1 3 1
M  V30 3 1 4 3
M  V30 4 1 5 1
M  V30 5 1 5 4
M  V30 6 1 6 3
M  V30 7 1 7 3
M  V30 8 1 8 4
M  V30 9 1 9 4
M  V30 10 1 10 5
M  V30 11 1 11 5
M  V30 12 1 12 2
M  V30 13 1 13 1
M  V30 END BOND
M  V30 END CTAB
M  END
$$$$
R-group 38 (8295-1)
     RDKit          3D

  0  0  0  0  0  0  0  0  0  0999 V3000
M  V30 BEGIN CTAB
M  V30 COUNTS 14 13 0 0 1
M  V30 BEGIN ATOM
M  V30 1 N 73.496300 54.820100 42.124400 0
M  V30 2 C 74.412100 55.719700 41.749700 0
M  V30 3 O 75.272300 55.503100 40.911900 0
M  V30 4 N 74.439200 56.799900 42.532700 0
M  V30 5 C 75.750100 57.257400 42.988800 0
M  V30 6 C 73.242600 57.394900 43.140900 0
M  V30 7 H 76.359900 57.620000 42.160500 0
M  V30 8 H 75.671200 58.049900 43.727100 0
M  V30 9 H 76.289600 56.440200 43.467300 0
M  V30 10 H 72.782700 56.709000 43.853000 0
M  V30 11 H 73.469000 58.302900 43.691300 0
M  V30 12 H 72.501400 57.656400 42.381000 0
M  V30 13 H 72.878700 55.101000 42.875800 0
M  V30 14 R 73.459200 53.407000 41.796900 0
M  V30 END ATOM
M  V30 BEGIN BOND
M  V30 1 1 2 1
M  V30 2 2 3 2
M  V30 3 1 4 2
M  V30 4 1 5 4
M  V30 5 1 6 4
M  V30 6 1 7 5
M  V30 7 1 8 5
M  V30 8 1 9 5
M  V30 9 1 10 6
M  V30 10 1 11 6
M  V30 11 1 12 6
M  V30 12 1 13 1
M  V30 13 1 14 1
M  V30 END BOND
M  V30 END CTAB
M  END
$$$$
R-group 39 (5663-1)
     RDKit          3D

  0  0  0  0  0  0  0  0  0  0999 V3000
M  V30 BEGIN CTAB
M  V30 COUNTS 20 20 0 0 1
M  V30 BEGIN ATOM
M  V30 1 C 74.047400 54.702300 41.758900 0
M  V30 2 C 73.479700 55.410500 40.522800 0
M  V30 3 C 74.009700 56.826300 40.414000 0 CFG=1
M  V30 4 O 73.272400 57.258000 39.325300 0
M  V30 5 C 73.692900 57.631500 41.682200 0
M  V30 6 C 74.256000 56.941000 42.906800 0 CFG=2
M  V30 7 O 75.672200 56.858000 42.923900 0
M  V30 8 C 73.719300 55.528700 43.014400 0
M  V30 9 H 75.129800 54.705500 41.620200 0
M  V30 10 H 73.745200 54.929000 39.587500 0
M  V30 11 H 72.390300 55.389600 40.524600 0
M  V30 12 H 75.076400 56.835200 40.186100 0
M  V30 13 H 74.072200 58.643000 41.722100 0
M  V30 14 H 72.611800 57.721000 41.789500 0
M  V30 15 H 73.913600 57.552900 43.724800 0
M  V30 16 H 72.641600 55.566900 43.178200 0
M  V30 17 H 74.166600 55.085300 43.897400 0
M  V30 18 H 73.819100 57.682900 38.672300 0
M  V30 19 H 76.025700 57.685500 43.223800 0
M  V30 20 R 73.611800 53.232700 41.906800 0
M  V30 END ATOM
M  V30 BEGIN BOND
M  V30 1 1 2 1
M  V30 2 1 3 2
M  V30 3 1 4 3
M  V30 4 1 5 3
M  V30 5 1 6 5
M  V30 6 1 7 6
M  V30 7 1 8 1
M  V30 8 1 8 6
M  V30 9 1 9 1
M  V30 10 1 10 2
M  V30 11 1 11 2
M  V30 12 1 3 12 CFG=3
M  V30 13 1 13 5
M  V30 14 1 14 5
M  V30 15 1 6 15 CFG=1
M  V30 16 1 16 8
M  V30 17 1 17 8
M  V30 18 1 18 4
M  V30 19 1 19 7
M  V30 20 1 20 1
M  V30 END BOND
M  V30 END CTAB
M  END
$$$$
R-group 40 (33401-1)
     RDKit          3D

  0  0  0  0  0  0  0  0  0  0999 V3000
M  V30 BEGIN CTAB
M  V30 COUNTS 13 13 0 0 1
M  V30 BEGIN ATOM
M  V30 1 C 74.103800 55.188200 41.719000 0
M  V30 2 O 73.672200 55.770300 42.924600 0
M  V30 3 C 75.572200 55.558200 41.410600 0
M  V30 4 C 75.031000 56.839600 40.798700 0
M  V30 5 F 74.871000 57.778200 41.721000 0
M  V30 6 F 75.672000 57.280500 39.725400 0
M  V30 7 C 73.740600 56.084300 40.512200 0
M  V30 8 H 76.194300 55.721700 42.289200 0
M  V30 9 H 76.072100 54.932600 40.675500 0
M  V30 10 H 73.772000 55.598900 39.537500 0
M  V30 11 H 72.844800 56.693600 40.621800 0
M  V30 12 H 73.241900 55.116100 43.467900 0
M  V30 13 R 73.680000 53.695500 41.777100 0
M  V30 END ATOM
M  V30 BEGIN BOND
M  V30 1 1 2 1
M  V30 2 1 3 1
M  V30 3 1 4 3
M  V30 4 1 5 4
M  V30 5 1 6 4
M  V30 6 1 7 1
M  V30 7 1 7 4
M  V30 8 1 8 3
M  V30 9 1 9 3
M  V30 10 1 10 7
M  V30 11 1 11 7
M  V30 12 1 12 2
M  V30 13 1 13 1
M  V30 END BOND
M  V30 END CTAB
M  END
$$$$
R-group 41 (34970-1)
     RDKit          3D

  0  0  0  0  0  0  0  0  0  0999 V3000
M  V30 BEGIN CTAB
M  V30 COUNTS 22 22 0 0 1
M  V30 BEGIN ATOM
M  V30 1 C 73.534700 54.583000 41.257300 0 CFG=2
M  V30 2 C 72.528400 55.035700 40.154700 0
M  V30 3 C 73.271000 55.378800 42.548400 0
M  V30 4 C 73.510600 56.871900 42.403200 0
M  V30 5 C 74.925000 57.071000 41.893900 0 CFG=1
M  V30 6 O 75.855100 56.855000 42.924300 0
M  V30 7 C 75.288300 56.326900 40.621000 0
M  V30 8 C 74.992900 54.860800 40.800900 0
M  V30 9 H 72.540900 56.105000 39.972100 0
M  V30 10 H 72.756800 54.587600 39.186300 0
M  V30 11 H 71.504900 54.769600 40.419700 0
M  V30 12 H 72.266700 55.191400 42.925400 0
M  V30 13 H 73.942600 55.038000 43.327200 0
M  V30 14 H 73.365300 57.378200 43.357600 0
M  V30 15 H 72.806700 57.325100 41.711900 0
M  V30 16 H 74.979100 58.057900 41.577700 0
M  V30 17 H 76.341400 56.475100 40.381900 0
M  V30 18 H 74.732300 56.723500 39.770700 0
M  V30 19 H 75.674800 54.518100 41.567300 0
M  V30 20 H 75.274300 54.350100 39.886900 0
M  V30 21 H 75.822700 57.583000 43.531600 0
M  V30 22 R 73.350600 53.080800 41.622100 0
M  V30 END ATOM
M  V30 BEGIN BOND
M  V30 1 1 2 1
M  V30 2 1 3 1
M  V30 3 1 4 3
M  V30 4 1 5 4
M  V30 5 1 6 5
M  V30 6 1 7 5
M  V30 7 1 8 1
M  V30 8 1 8 7
M  V30 9 1 9 2
M  V30 10 1 10 2
M  V30 11 1 11 2
M  V30 12 1 12 3
M  V30 13 1 13 3
M  V30 14 1 14 4
M  V30 15 1 15 4
M  V30 16 1 5 16 CFG=3
M  V30 17 1 17 7
M  V30 18 1 18 7
M  V30 19 1 19 8
M  V30 20 1 20 8
M  V30 21 1 21 6
M  V30 22 1 1 22 CFG=1
M  V30 END BOND
M  V30 END CTAB
M  END
$$$$
R-group 42 (7587-2)
     RDKit          3D

  0  0  0  0  0  0  0  0  0  0999 V3000
M  V30 BEGIN CTAB
M  V30 COUNTS 20 20 0 0 1
M  V30 BEGIN ATOM
M  V30 1 O 73.272900 54.359200 41.676200 0
M  V30 2 C 74.290400 54.925300 40.861800 0 CFG=1
M  V30 3 C 73.662800 55.328300 39.491900 0
M  V30 4 C 72.683800 56.503000 39.603800 0
M  V30 5 C 73.414900 57.619000 40.319900 0
M  V30 6 C 73.799500 57.223300 41.750500 0
M  V30 7 C 74.846300 56.118000 41.648700 0 CFG=1
M  V30 8 O 75.269800 55.693900 42.924200 0
M  V30 9 H 75.135600 54.259100 40.707100 0
M  V30 10 H 74.470100 55.594800 38.807200 0
M  V30 11 H 73.129100 54.517300 39.008700 0
M  V30 12 H 71.772500 56.215500 40.124600 0
M  V30 13 H 72.389600 56.857100 38.615500 0
M  V30 14 H 72.873200 58.563400 40.282000 0
M  V30 15 H 74.333800 57.658200 39.735500 0
M  V30 16 H 72.919700 56.905300 42.313600 0
M  V30 17 H 74.223800 58.058700 42.295300 0
M  V30 18 H 75.729500 56.503000 41.138400 0
M  V30 19 H 74.530600 55.261400 43.329300 0
M  V30 20 R 73.286100 52.949700 41.812100 0
M  V30 END ATOM
M  V30 BEGIN BOND
M  V30 1 1 2 1
M  V30 2 1 3 2
M  V30 3 1 4 3
M  V30 4 1 5 4
M  V30 5 1 6 5
M  V30 6 1 7 2
M  V30 7 1 7 6
M  V30 8 1 8 7
M  V30 9 1 2 9 CFG=3
M  V30 10 1 10 3
M  V30 11 1 11 3
M  V30 12 1 12 4
M  V30 13 1 13 4
M  V30 14 1 14 5
M  V30 15 1 15 5
M  V30 16 1 16 6
M  V30 17 1 17 6
M  V30 18 1 7 18 CFG=3
M  V30 19 1 19 8
M  V30 20 1 20 1
M  V30 END BOND
M  V30 END CTAB
M  END
$$$$
R-group 43 (15049-1)
     RDKit          3D

  0  0  0  0  0  0  0  0  0  0999 V3000
M  V30 BEGIN CTAB
M  V30 COUNTS 10 10 0 0 1
M  V30 BEGIN ATOM
M  V30 1 N 72.960000 54.289700 42.124500 0
M  V30 2 C 73.884400 55.353400 42.096300 0
M  V30 3 C 75.082500 55.580500 41.358800 0
M  V30 4 N 75.670500 56.710000 41.688700 0
M  V30 5 O 74.848400 57.257800 42.675100 0
M  V30 6 C 73.784600 56.461100 42.878700 0
M  V30 7 H 72.358700 54.243800 42.947900 0
M  V30 8 H 75.567600 54.963300 40.615500 0
M  V30 9 H 73.086300 56.779800 43.629600 0
M  V30 10 R 73.386600 53.009300 41.642200 0
M  V30 END ATOM
M  V30 BEGIN BOND
M  V30 1 1 2 1
M  V30 2 1 3 2
M  V30 3 2 4 3
M  V30 4 1 5 4
M  V30 5 2 6 2
M  V30 6 1 6 5
M  V30 7 1 7 1
M  V30 8 1 8 3
M  V30 9 1 9 6
M  V30 10 1 10 1
M  V30 END BOND
M  V30 END CTAB
M  END
$$$$
R-group 44 (17915-1)
     RDKit          3D

  0  0  0  0  0  0  0  0  0  0999 V3000
M  V30 BEGIN CTAB
M  V30 COUNTS 14 14 0 0 1
M  V30 BEGIN ATOM
M  V30 1 N 73.047700 54.451600 42.124700 0
M  V30 2 C 73.999400 55.521600 41.855300 0
M  V30 3 C 73.983100 56.798300 42.692100 0
M  V30 4 C 75.499300 56.858000 42.473000 0
M  V30 5 F 75.845700 57.555800 41.389600 0
M  V30 6 F 76.192700 57.227100 43.546800 0
M  V30 7 C 75.479300 55.377400 42.203500 0
M  V30 8 H 72.837800 54.423200 43.120500 0
M  V30 9 H 73.885500 55.816700 40.812400 0
M  V30 10 H 73.423500 57.624500 42.255800 0
M  V30 11 H 73.671700 56.604700 43.721000 0
M  V30 12 H 75.672100 54.811700 43.111700 0
M  V30 13 H 76.072100 55.051900 41.355400 0
M  V30 14 R 73.379200 53.135400 41.621000 0
M  V30 END ATOM
M  V30 BEGIN BOND
M  V30 1 1 2 1
M  V30 2 1 3 2
M  V30 3 1 4 3
M  V30 4 1 5 4
M  V30 5 1 6 4
M  V30 6 1 7 2
M  V30 7 1 7 4
M  V30 8 1 8 1
M  V30 9 1 9 2
M  V30 10 1 10 3
M  V30 11 1 11 3
M  V30 12 1 12 7
M  V30 13 1 13 7
M  V30 14 1 14 1
M  V30 END BOND
M  V30 END CTAB
M  END
$$$$
R-group 45 (7921-3)
     RDKit          3D

  0  0  0  0  0  0  0  0  0  0999 V3000
M  V30 BEGIN CTAB
M  V30 COUNTS 18 17 0 0 1
M  V30 BEGIN ATOM
M  V30 1 C 76.488800 57.749300 40.480400 0
M  V30 2 C 75.095800 57.179600 40.751600 0
M  V30 3 C 75.136800 55.861800 41.541800 0 CFG=1
M  V30 4 C 75.912200 56.057000 42.843200 0
M  V30 5 C 73.719200 55.346300 41.793200 0 CFG=2
M  V30 6 O 73.272400 56.057800 42.924700 0
M  V30 7 H 76.472500 58.531300 39.724600 0
M  V30 8 H 77.179100 56.985500 40.125200 0
M  V30 9 H 76.876100 58.184600 41.395900 0
M  V30 10 H 74.503500 57.898800 41.325100 0
M  V30 11 H 74.584700 57.025300 39.800500 0
M  V30 12 H 75.683100 55.134600 40.948700 0
M  V30 13 H 75.694000 57.003100 43.340600 0
M  V30 14 H 75.780400 55.250900 43.560900 0
M  V30 15 H 76.925700 56.058000 42.524100 0
M  V30 16 H 73.085500 55.729700 40.993100 0
M  V30 17 H 73.010000 55.439000 43.603900 0
M  V30 18 R 73.496700 53.791200 41.823700 0
M  V30 END ATOM
M  V30 BEGIN BOND
M  V30 1 1 2 1
M  V30 2 1 3 2
M  V30 3 1 4 3
M  V30 4 1 5 3
M  V30 5 1 6 5
M  V30 6 1 7 1
M  V30 7 1 8 1
M  V30 8 1 9 1
M  V30 9 1 10 2
M  V30 10 1 11 2
M  V30 11 1 3 12 CFG=3
M  V30 12 1 13 4
M  V30 13 1 14 4
M  V30 14 1 15 4
M  V30 15 1 5 16 CFG=3
M  V30 16 1 17 6
M  V30 17 1 18 5
M  V30 END BOND
M  V30 END CTAB
M  END
$$$$
R-group 46 (3450-1)
     RDKit          3D

  0  0  0  0  0  0  0  0  0  0999 V3000
M  V30 BEGIN CTAB
M  V30 COUNTS 12 12 0 0 1
M  V30 BEGIN ATOM
M  V30 1 N 73.672800 55.040400 42.524600 0
M  V30 2 C 74.891800 55.839300 42.471600 0 CFG=2
M  V30 3 C 74.792200 57.268300 42.926700 0
M  V30 4 C 75.006000 56.957900 41.464500 0 CFG=1
M  V30 5 O 76.326100 57.256600 41.070400 0
M  V30 6 H 73.330500 54.942400 43.486800 0
M  V30 7 H 75.779300 55.290700 42.773100 0
M  V30 8 H 73.814800 57.650000 43.215100 0
M  V30 9 H 75.630200 57.657700 43.503500 0
M  V30 10 H 74.220100 57.147500 40.735500 0
M  V30 11 H 76.554100 56.713500 40.331500 0
M  V30 12 R 73.721200 53.719200 41.885200 0
M  V30 END ATOM
M  V30 BEGIN BOND
M  V30 1 1 2 1
M  V30 2 1 3 2
M  V30 3 1 4 2
M  V30 4 1 4 3
M  V30 5 1 5 4
M  V30 6 1 6 1
M  V30 7 1 2 7 CFG=1
M  V30 8 1 8 3
M  V30 9 1 9 3
M  V30 10 1 4 10 CFG=3
M  V30 11 1 11 5
M  V30 12 1 12 1
M  V30 END BOND
M  V30 END CTAB
M  END
$$$$
R-group 47 (836-1)
     RDKit          3D

  0  0  0  0  0  0  0  0  0  0999 V3000
M  V30 BEGIN CTAB
M  V30 COUNTS 18 18 0 0 1
M  V30 BEGIN ATOM
M  V30 1 C 72.652200 54.251300 41.920900 0
M  V30 2 C 73.672900 55.351700 41.715500 0
M  V30 3 C 74.574300 55.613000 42.763600 0
M  V30 4 C 75.669600 56.457900 42.556900 0
M  V30 5 C 75.882600 57.001200 41.285100 0
M  V30 6 C 74.904500 56.852500 40.286500 0
M  V30 7 C 73.769700 56.065500 40.494500 0
M  V30 8 C 72.727900 56.026400 39.380500 0
M  V30 9 H 71.768200 54.444300 41.320300 0
M  V30 10 H 72.269700 54.277100 42.926100 0
M  V30 11 H 74.459200 55.130200 43.721900 0
M  V30 12 H 76.377700 56.642000 43.355400 0
M  V30 13 H 76.749800 57.619600 41.096900 0
M  V30 14 H 75.029400 57.358400 39.343100 0
M  V30 15 H 72.742700 56.976800 38.849100 0
M  V30 16 H 72.942400 55.247600 38.653300 0
M  V30 17 H 71.712600 55.901100 39.743300 0
M  V30 18 R 73.225200 52.863600 41.585600 0
M  V30 END ATOM
M  V30 BEGIN BOND
M  V30 1 1 2 1
M  V30 2 2 3 2
M  V30 3 1 4 3
M  V30 4 2 5 4
M  V30 5 1 6 5
M  V30 6 1 7 2
M  V30 7 2 7 6
M  V30 8 1 8 7
M  V30 9 1 9 1
M  V30 10 1 10 1
M  V30 11 1 11 3
M  V30 12 1 12 4
M  V30 13 1 13 5
M  V30 14 1 14 6
M  V30 15 1 15 8
M  V30 16 1 16 8
M  V30 17 1 17 8
M  V30 18 1 18 1
M  V30 END BOND
M  V30 END CTAB
M  END
$$$$
R-group 48 (7264-1)
     RDKit          3D

  0  0  0  0  0  0  0  0  0  0999 V3000
M  V30 BEGIN CTAB
M  V30 COUNTS 14 14 0 0 1
M  V30 BEGIN ATOM
M  V30 1 N 72.875900 54.098500 42.124600 0
M  V30 2 C 73.760200 55.174800 42.004900 0
M  V30 3 C 73.672100 56.229800 42.924600 0
M  V30 4 C 74.617300 57.095500 42.520500 0
M  V30 5 N 75.221600 56.553800 41.405400 0
M  V30 6 C 76.249700 57.129700 40.569100 0
M  V30 7 N 74.703800 55.348000 41.092500 0
M  V30 8 H 73.000700 56.329700 43.763500 0
M  V30 9 H 74.871000 58.053200 42.951100 0
M  V30 10 H 76.864700 57.817500 41.145300 0
M  V30 11 H 76.872200 56.333900 40.173300 0
M  V30 12 H 75.787300 57.658000 39.731800 0
M  V30 13 H 72.384500 54.094200 43.014500 0
M  V30 14 R 73.303800 52.818500 41.649600 0
M  V30 END ATOM
M  V30 BEGIN BOND
M  V30 1 1 2 1
M  V30 2 1 3 2
M  V30 3 2 4 3
M  V30 4 1 5 4
M  V30 5 1 6 5
M  V30 6 2 7 2
M  V30 7 1 7 5
M  V30 8 1 8 3
M  V30 9 1 9 4
M  V30 10 1 10 6
M  V30 11 1 11 6
M  V30 12 1 12 6
M  V30 13 1 13 1
M  V30 14 1 14 1
M  V30 END BOND
M  V30 END CTAB
M  END
$$$$
R-group 49 (35688-1)
     RDKit          3D

  0  0  0  0  0  0  0  0  0  0999 V3000
M  V30 BEGIN CTAB
M  V30 COUNTS 16 16 0 0 1
M  V30 BEGIN ATOM
M  V30 1 C 74.190200 54.909700 41.454700 0 CFG=1
M  V30 2 C 73.374100 55.655300 40.368500 0
M  V30 3 C 73.706600 57.136000 40.309200 0
M  V30 4 O 73.554300 57.658100 41.614900 0
M  V30 5 C 74.558100 57.196200 42.493200 0
M  V30 6 C 74.277900 55.723200 42.763000 0 CFG=2
M  V30 7 F 75.272200 55.260800 43.523200 0
M  V30 8 H 75.211600 54.844200 41.074700 0
M  V30 9 H 73.569800 55.248200 39.378600 0
M  V30 10 H 72.309400 55.517600 40.524500 0
M  V30 11 H 73.029100 57.650800 39.629300 0
M  V30 12 H 74.720100 57.269600 39.930000 0
M  V30 13 H 74.511900 57.779500 43.410000 0
M  V30 14 H 75.552800 57.337200 42.066900 0
M  V30 15 H 73.347900 55.639700 43.325400 0
M  V30 16 R 73.647900 53.473600 41.695900 0
M  V30 END ATOM
M  V30 BEGIN BOND
M  V30 1 1 2 1
M  V30 2 1 3 2
M  V30 3 1 4 3
M  V30 4 1 5 4
M  V30 5 1 6 1
M  V30 6 1 6 5
M  V30 7 1 7 6
M  V30 8 1 1 8 CFG=3
M  V30 9 1 9 2
M  V30 10 1 10 2
M  V30 11 1 11 3
M  V30 12 1 12 3
M  V30 13 1 13 5
M  V30 14 1 14 5
M  V30 15 1 6 15 CFG=1
M  V30 16 1 16 1
M  V30 END BOND
M  V30 END CTAB
M  END
$$$$
R-group 50 (15684-1)
     RDKit          3D

  0  0  0  0  0  0  0  0  0  0999 V3000
M  V30 BEGIN CTAB
M  V30 COUNTS 11 11 0 0 1
M  V30 BEGIN ATOM
M  V30 1 N 72.988300 54.299600 42.124900 0
M  V30 2 C 73.912900 55.277800 41.898200 0
M  V30 3 N 74.660800 55.242000 40.804800 0
M  V30 4 C 75.725900 56.058100 40.833300 0
M  V30 5 C 76.021200 56.858200 41.912800 0
M  V30 6 N 75.160300 56.859200 42.924700 0
M  V30 7 N 74.075500 56.089300 42.924600 0
M  V30 8 H 72.577900 54.412100 43.051500 0
M  V30 9 H 76.507400 55.936200 40.124700 0
M  V30 10 H 76.910800 57.464500 41.977100 0
M  V30 11 R 73.262400 52.920300 41.812100 0
M  V30 END ATOM
M  V30 BEGIN BOND
M  V30 1 1 2 1
M  V30 2 2 3 2
M  V30 3 1 4 3
M  V30 4 2 5 4
M  V30 5 1 6 5
M  V30 6 1 7 2
M  V30 7 2 7 6
M  V30 8 1 8 1
M  V30 9 1 9 4
M  V30 10 1 10 5
M  V30 11 1 11 1
M  V30 END BOND
M  V30 END CTAB
M  END
$$$$
R-group 51 (1640-1)
     RDKit          3D

  0  0  0  0  0  0  0  0  0  0999 V3000
M  V30 BEGIN CTAB
M  V30 COUNTS 10 10 0 0 1
M  V30 BEGIN ATOM
M  V30 1 N 73.756900 54.818000 41.578900 0
M  V30 2 C 73.673000 55.584600 40.421600 0
M  V30 3 C 74.010000 56.858300 40.728400 0
M  V30 4 C 74.238300 56.923500 42.125100 0
M  V30 5 C 74.080400 55.668200 42.617000 0
M  V30 6 H 73.395700 55.185500 39.460400 0
M  V30 7 H 74.046400 57.659200 40.007100 0
M  V30 8 H 74.470200 57.794200 42.717600 0
M  V30 9 H 74.153900 55.310400 43.632200 0
M  V30 10 R 73.482700 53.394900 41.716500 0
M  V30 END ATOM
M  V30 BEGIN BOND
M  V30 1 1 2 1
M  V30 2 2 3 2
M  V30 3 1 4 3
M  V30 4 1 5 1
M  V30 5 2 5 4
M  V30 6 1 6 2
M  V30 7 1 7 3
M  V30 8 1 8 4
M  V30 9 1 9 5
M  V30 10 1 10 1
M  V30 END BOND
M  V30 END CTAB
M  END
$$$$
R-group 52 (40386-2)
     RDKit          3D

  0  0  0  0  0  0  0  0  0  0999 V3000
M  V30 BEGIN CTAB
M  V30 COUNTS 16 15 0 0 1
M  V30 BEGIN ATOM
M  V30 1 C 73.076200 57.512800 40.203000 0
M  V30 2 C 74.205200 57.657900 41.234800 0
M  V30 3 C 74.352500 56.640700 42.345600 0 CFG=2
M  V30 4 O 75.623400 56.843000 42.924700 0
M  V30 5 C 74.371800 55.266400 41.740000 0
M  V30 6 O 75.272300 54.985100 40.955100 0
M  V30 7 N 73.398900 54.443700 42.124700 0
M  V30 8 H 73.273300 58.203100 39.382100 0
M  V30 9 H 73.010600 56.519200 39.762800 0
M  V30 10 H 72.111400 57.768700 40.633000 0
M  V30 11 H 74.071800 58.613900 41.724800 0
M  V30 12 H 75.150700 57.656100 40.686400 0
M  V30 13 H 73.568100 56.742900 43.096800 0
M  V30 14 H 76.266900 56.616600 42.267200 0
M  V30 15 H 72.740100 54.801600 42.809200 0
M  V30 16 R 73.371300 53.015000 41.918200 0
M  V30 END ATOM
M  V30 BEGIN BOND
M  V30 1 1 2 1
M  V30 2 1 3 2
M  V30 3 1 4 3
M  V30 4 1 5 3
M  V30 5 2 6 5
M  V30 6 1 7 5
M  V30 7 1 8 1
M  V30 8 1 9 1
M  V30 9 1 10 1
M  V30 10 1 11 2
M  V30 11 1 12 2
M  V30 12 1 3 13 CFG=1
M  V30 13 1 14 4
M  V30 14 1 15 7
M  V30 15 1 16 7
M  V30 END BOND
M  V30 END CTAB
M  END
$$$$
R-group 53 (9417-2)
     RDKit          3D

  0  0  0  0  0  0  0  0  0  0999 V3000
M  V30 BEGIN CTAB
M  V30 COUNTS 18 19 0 0 1
M  V30 BEGIN ATOM
M  V30 1 C 73.965400 54.972800 41.812900 0
M  V30 2 C 74.672000 55.561800 42.800600 0
M  V30 3 C 75.030300 57.022100 42.714000 0 CFG=1
M  V30 4 C 76.265500 57.172400 41.831200 0
M  V30 5 C 75.688700 57.206500 40.427400 0
M  V30 6 C 74.162200 57.231100 40.640000 0 CFG=1
M  V30 7 C 73.551600 55.825200 40.592800 0
M  V30 8 O 73.999500 57.658200 41.980400 0
M  V30 9 H 75.011000 55.049800 43.684200 0
M  V30 10 H 75.172500 57.472100 43.696400 0
M  V30 11 H 76.889200 56.296700 41.960500 0
M  V30 12 H 76.869800 58.057900 42.050600 0
M  V30 13 H 75.985300 56.319200 39.875000 0
M  V30 14 H 76.072200 58.058500 39.870700 0
M  V30 15 H 73.657000 57.893500 39.935500 0
M  V30 16 H 73.850200 55.394900 39.642800 0
M  V30 17 H 72.472100 55.893800 40.524500 0
M  V30 18 R 73.570000 53.490700 41.827900 0
M  V30 END ATOM
M  V30 BEGIN BOND
M  V30 1 2 2 1
M  V30 2 1 3 2
M  V30 3 1 4 3
M  V30 4 1 5 4
M  V30 5 1 6 5
M  V30 6 1 7 1
M  V30 7 1 7 6
M  V30 8 1 8 3
M  V30 9 1 8 6
M  V30 10 1 9 2
M  V30 11 1 3 10 CFG=1
M  V30 12 1 11 4
M  V30 13 1 12 4
M  V30 14 1 13 5
M  V30 15 1 14 5
M  V30 16 1 6 15 CFG=3
M  V30 17 1 16 7
M  V30 18 1 17 7
M  V30 19 1 18 1
M  V30 END BOND
M  V30 END CTAB
M  END
$$$$
R-group 54 (4556-1)
     RDKit          3D

  0  0  0  0  0  0  0  0  0  0999 V3000
M  V30 BEGIN CTAB
M  V30 COUNTS 18 17 0 0 1
M  V30 BEGIN ATOM
M  V30 1 C 76.210800 55.659400 44.211700 0
M  V30 2 C 75.714600 56.855500 43.338000 0
M  V30 3 C 74.315900 56.654400 42.700300 0 CFG=1
M  V30 4 C 73.851300 57.767600 41.761000 0
M  V30 5 C 74.336900 55.401800 41.853600 0
M  V30 6 O 75.251200 55.230800 41.048600 0
M  V30 7 N 73.366700 54.530300 42.123000 0
M  V30 8 H 77.255600 55.737600 44.524700 0
M  V30 9 H 76.072200 54.705300 43.723300 0
M  V30 10 H 75.664000 55.542700 45.132600 0
M  V30 11 H 75.672300 57.750900 43.954200 0
M  V30 12 H 76.450200 57.068800 42.561700 0
M  V30 13 H 73.585400 56.553100 43.506300 0
M  V30 14 H 72.774100 57.712900 41.592800 0
M  V30 15 H 74.067900 58.754600 42.152500 0
M  V30 16 H 74.323800 57.658000 40.781800 0
M  V30 17 H 72.698400 54.818300 42.825800 0
M  V30 18 R 73.372800 53.120900 41.839900 0
M  V30 END ATOM
M  V30 BEGIN BOND
M  V30 1 1 2 1
M  V30 2 1 3 2
M  V30 3 1 4 3
M  V30 4 1 5 3
M  V30 5 2 6 5
M  V30 6 1 7 5
M  V30 7 1 8 1
M  V30 8 1 9 1
M  V30 9 1 10 1
M  V30 10 1 11 2
M  V30 11 1 12 2
M  V30 12 1 3 13 CFG=1
M  V30 13 1 14 4
M  V30 14 1 15 4
M  V30 15 1 16 4
M  V30 16 1 17 7
M  V30 17 1 18 7
M  V30 END BOND
M  V30 END CTAB
M  END
$$$$
R-group 55 (9790-1)
     RDKit          3D

  0  0  0  0  0  0  0  0  0  0999 V3000
M  V30 BEGIN CTAB
M  V30 COUNTS 19 20 0 0 1
M  V30 BEGIN ATOM
M  V30 1 C 74.002200 55.305300 41.844600 0 CFG=2
M  V30 2 C 73.431300 55.953700 43.124600 0
M  V30 3 C 73.465200 57.456600 42.835700 0
M  V30 4 C 74.015800 57.508700 41.412000 0 CFG=1
M  V30 5 C 75.523100 57.161700 41.470100 0
M  V30 6 C 75.510100 55.657800 41.793700 0
M  V30 7 C 73.501000 56.247400 40.738400 0
M  V30 8 H 72.401600 55.657800 43.324100 0
M  V30 9 H 74.027000 55.658000 43.990000 0
M  V30 10 H 74.099700 58.007100 43.528000 0
M  V30 11 H 72.472200 57.897200 42.882100 0
M  V30 12 H 73.672200 58.423200 40.919600 0
M  V30 13 H 76.020600 57.354400 40.518200 0
M  V30 14 H 76.082100 57.658000 42.256900 0
M  V30 15 H 76.000100 55.466100 42.746900 0
M  V30 16 H 76.053700 55.118200 41.023400 0
M  V30 17 H 73.990500 56.077500 39.777700 0
M  V30 18 H 72.442300 56.257600 40.524700 0
M  V30 19 R 73.622500 53.789700 41.748900 0
M  V30 END ATOM
M  V30 BEGIN BOND
M  V30 1 1 2 1
M  V30 2 1 3 2
M  V30 3 1 4 3
M  V30 4 1 5 4
M  V30 5 1 6 1
M  V30 6 1 6 5
M  V30 7 1 7 1
M  V30 8 1 7 4
M  V30 9 1 8 2
M  V30 10 1 9 2
M  V30 11 1 10 3
M  V30 12 1 11 3
M  V30 13 1 4 12 CFG=3
M  V30 14 1 13 5
M  V30 15 1 14 5
M  V30 16 1 15 6
M  V30 17 1 16 6
M  V30 18 1 17 7
M  V30 19 1 18 7
M  V30 20 1 1 19 CFG=3
M  V30 END BOND
M  V30 END CTAB
M  END
$$$$
R-group 56 (14276-1)
     RDKit          3D

  0  0  0  0  0  0  0  0  0  0999 V3000
M  V30 BEGIN CTAB
M  V30 COUNTS 15 15 0 0 1
M  V30 BEGIN ATOM
M  V30 1 C 71.484900 55.860300 39.421200 0
M  V30 2 C 73.016900 55.784300 39.350300 0
M  V30 3 C 73.672200 55.862900 40.718000 0
M  V30 4 C 74.074500 57.074000 41.328700 0
M  V30 5 C 74.637900 56.772900 42.524800 0
M  V30 6 O 74.528000 55.453600 42.763000 0
M  V30 7 C 73.919000 54.902100 41.676800 0
M  V30 8 H 71.015100 55.654400 38.462500 0
M  V30 9 H 71.080900 55.134500 40.124300 0
M  V30 10 H 71.161100 56.853000 39.723900 0
M  V30 11 H 73.384400 56.621500 38.755500 0
M  V30 12 H 73.333400 54.899700 38.808000 0
M  V30 13 H 73.971000 58.057800 40.923500 0
M  V30 14 H 75.094700 57.355800 43.313600 0
M  V30 15 R 73.612600 53.438600 41.823000 0
M  V30 END ATOM
M  V30 BEGIN BOND
M  V30 1 1 2 1
M  V30 2 1 3 2
M  V30 3 1 4 3
M  V30 4 2 5 4
M  V30 5 1 6 5
M  V30 6 2 7 3
M  V30 7 1 7 6
M  V30 8 1 8 1
M  V30 9 1 9 1
M  V30 10 1 10 1
M  V30 11 1 11 2
M  V30 12 1 12 2
M  V30 13 1 13 4
M  V30 14 1 14 5
M  V30 15 1 15 7
M  V30 END BOND
M  V30 END CTAB
M  END
$$$$
R-group 57 (10358-1)
     RDKit          3D

  0  0  0  0  0  0  0  0  0  0999 V3000
M  V30 BEGIN CTAB
M  V30 COUNTS 12 12 0 0 1
M  V30 BEGIN ATOM
M  V30 1 C 73.576800 54.585800 41.321600 0
M  V30 2 C 73.511300 55.157700 40.071200 0
M  V30 3 S 73.671000 56.860300 40.125000 0
M  V30 4 C 73.673100 56.837800 41.865600 0
M  V30 5 C 73.600900 58.058600 42.691700 0
M  V30 6 C 73.684000 55.562800 42.335600 0
M  V30 7 H 73.365300 54.704400 39.105000 0
M  V30 8 H 72.726700 58.023700 43.337900 0
M  V30 9 H 74.473900 58.137900 43.328800 0
M  V30 10 H 73.508400 58.940500 42.071300 0
M  V30 11 H 73.680400 55.293700 43.372700 0
M  V30 12 R 73.449000 53.122100 41.613500 0
M  V30 END ATOM
M  V30 BEGIN BOND
M  V30 1 2 2 1
M  V30 2 1 3 2
M  V30 3 1 4 3
M  V30 4 1 5 4
M  V30 5 1 6 1
M  V30 6 2 6 4
M  V30 7 1 7 2
M  V30 8 1 8 5
M  V30 9 1 9 5
M  V30 10 1 10 5
M  V30 11 1 11 6
M  V30 12 1 12 1
M  V30 END BOND
M  V30 END CTAB
M  END
$$$$
R-group 58 (884-2)
     RDKit          3D

  0  0  0  0  0  0  0  0  0  0999 V3000
M  V30 BEGIN CTAB
M  V30 COUNTS 12 11 0 0 1
M  V30 BEGIN ATOM
M  V30 1 C 75.623900 57.073800 41.022600 0
M  V30 2 C 75.227700 55.612500 40.846000 0
M  V30 3 C 73.971800 55.216000 41.647800 0 CFG=2
M  V30 4 O 74.072400 55.774100 42.924700 0
M  V30 5 H 76.345600 57.395100 40.271500 0
M  V30 6 H 74.716800 57.659800 40.924800 0
M  V30 7 H 76.052800 57.259900 42.008000 0
M  V30 8 H 76.071800 54.978200 41.094100 0
M  V30 9 H 75.014700 55.496900 39.787600 0
M  V30 10 H 73.118200 55.703900 41.178800 0
M  V30 11 H 73.358200 55.455100 43.467400 0
M  V30 12 R 73.663400 53.698900 41.773700 0
M  V30 END ATOM
M  V30 BEGIN BOND
M  V30 1 1 2 1
M  V30 2 1 3 2
M  V30 3 1 4 3
M  V30 4 1 5 1
M  V30 5 1 6 1
M  V30 6 1 7 1
M  V30 7 1 8 2
M  V30 8 1 9 2
M  V30 9 1 3 10 CFG=3
M  V30 10 1 11 4
M  V30 11 1 12 3
M  V30 END BOND
M  V30 END CTAB
M  END
$$$$
R-group 59 (27086-1)
     RDKit          3D

  0  0  0  0  0  0  0  0  0  0999 V3000
M  V30 BEGIN CTAB
M  V30 COUNTS 12 11 0 0 1
M  V30 BEGIN ATOM
M  V30 1 N 73.810900 54.954700 42.215100 0
M  V30 2 C 74.743900 55.780700 41.721000 0
M  V30 3 O 75.272100 55.657500 40.624100 0
M  V30 4 C 75.170300 56.902900 42.647900 0 CFG=1
M  V30 5 C 76.455200 57.638900 42.155600 0
M  V30 6 F 74.081700 57.657900 42.844700 0
M  V30 7 H 77.229500 56.918000 41.904300 0
M  V30 8 H 76.296200 58.195400 41.234500 0
M  V30 9 H 76.872300 58.285700 42.924500 0
M  V30 10 H 73.387200 55.243600 43.088700 0
M  V30 11 H 75.401600 56.449800 43.612200 0
M  V30 12 R 73.586800 53.550700 41.885000 0
M  V30 END ATOM
M  V30 BEGIN BOND
M  V30 1 1 2 1
M  V30 2 2 3 2
M  V30 3 1 4 2
M  V30 4 1 5 4
M  V30 5 1 6 4
M  V30 6 1 7 5
M  V30 7 1 8 5
M  V30 8 1 9 5
M  V30 9 1 10 1
M  V30 10 1 4 11 CFG=1
M  V30 11 1 12 1
M  V30 END BOND
M  V30 END CTAB
M  END
$$$$
R-group 60 (18605-1)
     RDKit          3D

  0  0  0  0  0  0  0  0  0  0999 V3000
M  V30 BEGIN CTAB
M  V30 COUNTS 17 17 0 0 1
M  V30 BEGIN ATOM
M  V30 1 C 72.672400 54.282100 41.939000 0
M  V30 2 C 73.712600 55.376800 41.827600 0
M  V30 3 C 74.543400 55.635300 42.925000 0
M  V30 4 C 75.671900 56.440700 42.767800 0
M  V30 5 C 75.961800 56.891300 41.478800 0
M  V30 6 N 75.074700 56.824400 40.478000 0
M  V30 7 C 73.947400 56.119500 40.646600 0
M  V30 8 C 72.947600 56.232100 39.505700 0
M  V30 9 H 71.832700 54.457900 41.267100 0
M  V30 10 H 72.231600 54.280200 42.924900 0
M  V30 11 H 74.364000 55.171500 43.881600 0
M  V30 12 H 76.345400 56.620900 43.591900 0
M  V30 13 H 76.855600 57.464800 41.289500 0
M  V30 14 H 71.940200 56.344400 39.888900 0
M  V30 15 H 73.160100 57.120200 38.910400 0
M  V30 16 H 72.963300 55.375300 38.837300 0
M  V30 17 R 73.260000 52.901400 41.592800 0
M  V30 END ATOM
M  V30 BEGIN BOND
M  V30 1 1 2 1
M  V30 2 2 3 2
M  V30 3 1 4 3
M  V30 4 2 5 4
M  V30 5 1 6 5
M  V30 6 1 7 2
M  V30 7 2 7 6
M  V30 8 1 8 7
M  V30 9 1 9 1
M  V30 10 1 10 1
M  V30 11 1 11 3
M  V30 12 1 12 4
M  V30 13 1 13 5
M  V30 14 1 14 8
M  V30 15 1 15 8
M  V30 16 1 16 8
M  V30 17 1 17 1
M  V30 END BOND
M  V30 END CTAB
M  END
$$$$
R-group 61 (3438-1)
     RDKit          3D

  0  0  0  0  0  0  0  0  0  0999 V3000
M  V30 BEGIN CTAB
M  V30 COUNTS 11 11 0 0 1
M  V30 BEGIN ATOM
M  V30 1 N 73.702300 55.109700 42.524700 0
M  V30 2 C 74.987100 55.779400 42.652100 0
M  V30 3 C 75.408300 56.768600 41.584800 0
M  V30 4 C 74.934600 57.258000 42.926000 0
M  V30 5 H 73.274000 55.002200 43.448100 0
M  V30 6 H 75.793000 55.273900 43.177900 0
M  V30 7 H 76.472100 56.846300 41.367000 0
M  V30 8 H 74.745200 56.934600 40.737200 0
M  V30 9 H 73.959200 57.741700 42.966400 0
M  V30 10 H 75.679100 57.658100 43.611400 0
M  V30 11 R 73.758100 53.784100 41.906000 0
M  V30 END ATOM
M  V30 BEGIN BOND
M  V30 1 1 2 1
M  V30 2 1 3 2
M  V30 3 1 4 2
M  V30 4 1 4 3
M  V30 5 1 5 1
M  V30 6 1 6 2
M  V30 7 1 7 3
M  V30 8 1 8 3
M  V30 9 1 9 4
M  V30 10 1 10 4
M  V30 11 1 11 1
M  V30 END BOND
M  V30 END CTAB
M  END
$$$$
R-group 62 (7587-4)
     RDKit          3D

  0  0  0  0  0  0  0  0  0  0999 V3000
M  V30 BEGIN CTAB
M  V30 COUNTS 20 20 0 0 1
M  V30 BEGIN ATOM
M  V30 1 O 73.278100 54.597200 41.879500 0
M  V30 2 C 74.411600 55.426500 41.669600 0 CFG=1
M  V30 3 C 74.275800 56.409300 40.485400 0
M  V30 4 C 73.107100 57.387100 40.650700 0
M  V30 5 C 73.044700 58.058800 42.034500 0
M  V30 6 C 73.294200 57.088900 43.199200 0
M  V30 7 C 74.525300 56.182300 42.988300 0 CFG=2
M  V30 8 O 75.745200 56.858000 42.924800 0
M  V30 9 H 75.322900 54.844200 41.513300 0
M  V30 10 H 75.199700 56.983600 40.395000 0
M  V30 11 H 74.179100 55.889600 39.533800 0
M  V30 12 H 72.175100 56.864800 40.447900 0
M  V30 13 H 73.221600 58.152300 39.878500 0
M  V30 14 H 72.081400 58.561200 42.156000 0
M  V30 15 H 73.786600 58.843700 42.100100 0
M  V30 16 H 72.454500 56.415800 43.325700 0
M  V30 17 H 73.301600 57.656600 44.123900 0
M  V30 18 H 74.594700 55.478400 43.816700 0
M  V30 19 H 75.828100 57.425400 43.681200 0
M  V30 20 R 73.421700 53.216700 41.631700 0
M  V30 END ATOM
M  V30 BEGIN BOND
M  V30 1 1 2 1
M  V30 2 1 3 2
M  V30 3 1 4 3
M  V30 4 1 5 4
M  V30 5 1 6 5
M  V30 6 1 7 2
M  V30 7 1 7 6
M  V30 8 1 8 7
M  V30 9 1 2 9 CFG=3
M  V30 10 1 10 3
M  V30 11 1 11 3
M  V30 12 1 12 4
M  V30 13 1 13 4
M  V30 14 1 14 5
M  V30 15 1 15 5
M  V30 16 1 16 6
M  V30 17 1 17 6
M  V30 18 1 7 18 CFG=1
M  V30 19 1 19 8
M  V30 20 1 20 1
M  V30 END BOND
M  V30 END CTAB
M  END
$$$$
R-group 63 (9786-4)
     RDKit          3D

  0  0  0  0  0  0  0  0  0  0999 V3000
M  V30 BEGIN CTAB
M  V30 COUNTS 29 30 0 0 1
M  V30 BEGIN ATOM
M  V30 1 C 73.875500 54.828600 41.403300 0 CFG=2
M  V30 2 C 73.505900 55.728200 42.581000 0
M  V30 3 C 73.496700 57.135400 41.986200 0
M  V30 4 C 73.062300 56.963200 40.523400 0
M  V30 5 C 73.112100 55.452000 40.209500 0 CFG=2
M  V30 6 O 71.815100 54.858100 40.124400 0
M  V30 7 C 71.080600 55.165000 38.957300 0
M  V30 8 C 69.729700 54.474000 38.921700 0
M  V30 9 C 68.583300 55.197700 38.524500 0
M  V30 10 C 67.322200 54.570900 38.491700 0
M  V30 11 C 67.204700 53.209400 38.838200 0
M  V30 12 C 68.344000 52.478600 39.223800 0
M  V30 13 C 69.604100 53.108600 39.263000 0
M  V30 14 H 74.939800 54.982600 41.210100 0
M  V30 15 H 72.507400 55.464400 42.927300 0
M  V30 16 H 74.188800 55.637700 43.424800 0
M  V30 17 H 74.502100 57.557100 42.022300 0
M  V30 18 H 72.846900 57.811400 42.540100 0
M  V30 19 H 73.743600 57.509500 39.869400 0
M  V30 20 H 72.073200 57.385200 40.362800 0
M  V30 21 H 73.648600 55.277100 39.277100 0
M  V30 22 H 70.945600 56.239900 38.840600 0
M  V30 23 H 71.665200 54.811200 38.123900 0
M  V30 24 H 68.665200 56.242700 38.259000 0
M  V30 25 H 66.448100 55.132600 38.196600 0
M  V30 26 H 66.236100 52.730100 38.813800 0
M  V30 27 H 68.253000 51.433800 39.491600 0
M  V30 28 H 70.464300 52.536200 39.567100 0
M  V30 29 R 73.642600 53.311500 41.652600 0
M  V30 END ATOM
M  V30 BEGIN BOND
M  V30 1 1 2 1
M  V30 2 1 3 2
M  V30 3 1 4 3
M  V30 4 1 5 1
M  V30 5 1 5 4
M  V30 6 1 6 5
M  V30 7 1 7 6
M  V30 8 1 8 7
M  V30 9 2 9 8
M  V30 10 1 10 9
M  V30 11 2 11 10
M  V30 12 1 12 11
M  V30 13 1 13 8
M  V30 14 2 13 12
M  V30 15 1 1 14 CFG=3
M  V30 16 1 15 2
M  V30 17 1 16 2
M  V30 18 1 17 3
M  V30 19 1 18 3
M  V30 20 1 19 4
M  V30 21 1 20 4
M  V30 22 1 5 21 CFG=3
M  V30 23 1 22 7
M  V30 24 1 23 7
M  V30 25 1 24 9
M  V30 26 1 25 10
M  V30 27 1 26 11
M  V30 28 1 27 12
M  V30 29 1 28 13
M  V30 30 1 29 1
M  V30 END BOND
M  V30 END CTAB
M  END
$$$$
R-group 64 (44127-8)
     RDKit          3D

  0  0  0  0  0  0  0  0  0  0999 V3000
M  V30 BEGIN CTAB
M  V30 COUNTS 16 16 0 0 1
M  V30 BEGIN ATOM
M  V30 1 C 74.272600 55.028000 41.405100 0 CFG=2
M  V30 2 C 74.103800 55.881700 42.665500 0 CFG=1
M  V30 3 F 75.272600 55.863400 43.306100 0
M  V30 4 C 73.731800 57.294700 42.221700 0
M  V30 5 C 74.073400 57.339300 40.739900 0
M  V30 6 C 73.843200 55.925800 40.220100 0 CFG=2
M  V30 7 C 72.470600 55.763800 39.724600 0
M  V30 8 N 71.388200 55.634500 39.324700 0
M  V30 9 H 75.348700 54.915900 41.250100 0
M  V30 10 H 73.334500 55.492300 43.324800 0
M  V30 11 H 74.246900 58.056700 42.801200 0
M  V30 12 H 72.665400 57.455500 42.353200 0
M  V30 13 H 73.472200 58.063200 40.192900 0
M  V30 14 H 75.123500 57.622800 40.639800 0
M  V30 15 H 74.470900 55.756300 39.347600 0
M  V30 16 R 73.685400 53.596000 41.579100 0
M  V30 END ATOM
M  V30 BEGIN BOND
M  V30 1 1 2 1
M  V30 2 1 3 2
M  V30 3 1 4 2
M  V30 4 1 5 4
M  V30 5 1 6 1
M  V30 6 1 6 5
M  V30 7 1 7 6
M  V30 8 3 8 7
M  V30 9 1 1 9 CFG=3
M  V30 10 1 2 10 CFG=1
M  V30 11 1 11 4
M  V30 12 1 12 4
M  V30 13 1 13 5
M  V30 14 1 14 5
M  V30 15 1 6 15 CFG=3
M  V30 16 1 16 1
M  V30 END BOND
M  V30 END CTAB
M  END
$$$$
R-group 65 (4355-1)
     RDKit          3D

  0  0  0  0  0  0  0  0  0  0999 V3000
M  V30 BEGIN CTAB
M  V30 COUNTS 14 13 0 0 1
M  V30 BEGIN ATOM
M  V30 1 C 76.039600 57.469500 41.330800 0
M  V30 2 C 75.185200 57.255200 42.606500 0
M  V30 3 N 74.203000 56.198700 42.524200 0
M  V30 4 C 74.301000 55.068500 41.843900 0
M  V30 5 O 75.259800 54.787100 41.129200 0
M  V30 6 N 73.274500 54.256900 42.123100 0
M  V30 7 H 76.480200 58.458600 41.289700 0
M  V30 8 H 76.871700 56.768900 41.311500 0
M  V30 9 H 75.470100 57.297100 40.416600 0
M  V30 10 H 74.470700 58.019200 42.807300 0
M  V30 11 H 75.810000 57.140600 43.495300 0
M  V30 12 H 73.399200 56.302400 43.127800 0
M  V30 13 H 72.564100 54.607600 42.750800 0
M  V30 14 R 73.306500 52.815200 41.993400 0
M  V30 END ATOM
M  V30 BEGIN BOND
M  V30 1 1 2 1
M  V30 2 1 3 2
M  V30 3 1 4 3
M  V30 4 2 5 4
M  V30 5 1 6 4
M  V30 6 1 7 1
M  V30 7 1 8 1
M  V30 8 1 9 1
M  V30 9 1 10 2
M  V30 10 1 11 2
M  V30 11 1 12 3
M  V30 12 1 13 6
M  V30 13 1 14 6
M  V30 END BOND
M  V30 END CTAB
M  END
$$$$
R-group 66 (18322-1)
     RDKit          3D

  0  0  0  0  0  0  0  0  0  0999 V3000
M  V30 BEGIN CTAB
M  V30 COUNTS 18 18 0 0 1
M  V30 BEGIN ATOM
M  V30 1 C 73.994800 55.248800 41.532400 0
M  V30 2 C 73.131200 55.949700 40.446300 0
M  V30 3 C 73.858900 55.990600 42.883100 0
M  V30 4 C 74.719800 57.258700 42.771300 0
M  V30 5 C 75.790800 56.935900 41.722500 0
M  V30 6 C 75.465300 55.536600 41.191100 0
M  V30 7 H 73.130200 57.038600 40.542900 0
M  V30 8 H 73.502800 55.724800 39.445900 0
M  V30 9 H 72.103400 55.606000 40.450900 0
M  V30 10 H 72.824200 56.216900 43.145500 0
M  V30 11 H 74.264100 55.392400 43.697900 0
M  V30 12 H 74.087300 58.071400 42.421400 0
M  V30 13 H 75.156900 57.570700 43.719000 0
M  V30 14 H 75.750500 57.658300 40.905500 0
M  V30 15 H 76.806500 56.978400 42.126100 0
M  V30 16 H 76.072100 54.831400 41.723300 0
M  V30 17 H 75.711000 55.459600 40.131600 0
M  V30 18 R 73.622900 53.713600 41.662800 0
M  V30 END ATOM
M  V30 BEGIN BOND
M  V30 1 1 2 1
M  V30 2 1 3 1
M  V30 3 1 4 3
M  V30 4 1 5 4
M  V30 5 1 6 1
M  V30 6 1 6 5
M  V30 7 1 7 2
M  V30 8 1 8 2
M  V30 9 1 9 2
M  V30 10 1 10 3
M  V30 11 1 11 3
M  V30 12 1 12 4
M  V30 13 1 13 4
M  V30 14 1 14 5
M  V30 15 1 15 5
M  V30 16 1 16 6
M  V30 17 1 17 6
M  V30 18 1 18 1
M  V30 END BOND
M  V30 END CTAB
M  END
$$$$
R-group 67 (35689-8)
     RDKit          3D

  0  0  0  0  0  0  0  0  0  0999 V3000
M  V30 BEGIN CTAB
M  V30 COUNTS 16 16 0 0 1
M  V30 BEGIN ATOM
M  V30 1 C 73.858800 54.829700 41.417600 0 CFG=1
M  V30 2 C 72.935500 55.424300 40.338200 0
M  V30 3 C 73.123000 56.929600 40.442300 0 CFG=2
M  V30 4 O 74.072400 57.257000 39.460200 0
M  V30 5 C 73.724200 57.179000 41.839600 0 CFG=1
M  V30 6 F 73.007900 58.058000 42.525300 0
M  V30 7 C 73.751200 55.830000 42.562000 0
M  V30 8 H 74.881500 54.890300 41.039700 0
M  V30 9 H 73.158700 55.058100 39.335300 0
M  V30 10 H 71.900200 55.150500 40.524500 0
M  V30 11 H 72.192500 57.474800 40.275100 0
M  V30 12 H 74.733900 57.586400 41.766600 0
M  V30 13 H 72.823100 55.671100 43.112200 0
M  V30 14 H 74.575200 55.754900 43.272200 0
M  V30 15 H 73.666100 57.608200 38.673400 0
M  V30 16 R 73.544400 53.362200 41.776800 0
M  V30 END ATOM
M  V30 BEGIN BOND
M  V30 1 1 2 1
M  V30 2 1 3 2
M  V30 3 1 4 3
M  V30 4 1 5 3
M  V30 5 1 6 5
M  V30 6 1 7 1
M  V30 7 1 7 5
M  V30 8 1 1 8 CFG=3
M  V30 9 1 9 2
M  V30 10 1 10 2
M  V30 11 1 3 11 CFG=3
M  V30 12 1 5 12 CFG=3
M  V30 13 1 13 7
M  V30 14 1 14 7
M  V30 15 1 15 4
M  V30 16 1 16 1
M  V30 END BOND
M  V30 END CTAB
M  END
$$$$
R-group 68 (7511-4)
     RDKit          3D

  0  0  0  0  0  0  0  0  0  0999 V3000
M  V30 BEGIN CTAB
M  V30 COUNTS 16 16 0 0 1
M  V30 BEGIN ATOM
M  V30 1 N 73.251200 54.349100 42.124500 0
M  V30 2 C 74.073300 55.353400 41.849500 0
M  V30 3 O 75.015700 55.293600 41.065300 0
M  V30 4 C 73.755800 56.560000 42.615400 0 CFG=1
M  V30 5 C 74.861500 57.557200 42.768600 0
M  V30 6 C 73.711600 57.828000 41.815000 0 CFG=2
M  V30 7 C 72.605700 58.788300 42.126500 0
M  V30 8 H 73.054300 56.462200 43.442700 0
M  V30 9 H 74.910200 58.056800 43.724800 0
M  V30 10 H 75.832100 57.332600 42.327700 0
M  V30 11 H 73.909100 57.719300 40.748100 0
M  V30 12 H 72.473100 58.821400 43.199800 0
M  V30 13 H 72.849800 59.779200 41.774000 0
M  V30 14 H 71.680700 58.460200 41.670900 0
M  V30 15 H 72.532100 54.532000 42.812700 0
M  V30 16 R 73.408900 52.970400 41.755800 0
M  V30 END ATOM
M  V30 BEGIN BOND
M  V30 1 1 2 1
M  V30 2 2 3 2
M  V30 3 1 4 2
M  V30 4 1 5 4
M  V30 5 1 6 4
M  V30 6 1 6 5
M  V30 7 1 7 6
M  V30 8 1 4 8 CFG=1
M  V30 9 1 9 5
M  V30 10 1 10 5
M  V30 11 1 6 11 CFG=3
M  V30 12 1 12 7
M  V30 13 1 13 7
M  V30 14 1 14 7
M  V30 15 1 15 1
M  V30 16 1 16 1
M  V30 END BOND
M  V30 END CTAB
M  END
$$$$
R-group 69 (11585-1)
     RDKit          3D

  0  0  0  0  0  0  0  0  0  0999 V3000
M  V30 BEGIN CTAB
M  V30 COUNTS 13 13 0 0 1
M  V30 BEGIN ATOM
M  V30 1 C 73.956500 54.717500 41.833600 0
M  V30 2 C 73.672300 55.563500 40.807000 0
M  V30 3 C 73.824500 56.876700 41.289900 0
M  V30 4 C 73.221400 58.057500 40.632000 0
M  V30 5 C 74.467200 56.813200 42.493900 0
M  V30 6 N 74.527400 55.483200 42.825600 0
M  V30 7 H 73.192500 55.292200 39.878700 0
M  V30 8 H 73.671600 58.263500 39.659700 0
M  V30 9 H 72.146500 57.911600 40.524700 0
M  V30 10 H 73.352300 58.858500 41.336500 0
M  V30 11 H 74.774000 57.579900 43.191200 0
M  V30 12 H 74.824600 55.134000 43.724800 0
M  V30 13 R 73.645000 53.271200 41.968900 0
M  V30 END ATOM
M  V30 BEGIN BOND
M  V30 1 2 2 1
M  V30 2 1 3 2
M  V30 3 1 4 3
M  V30 4 2 5 3
M  V30 5 1 6 1
M  V30 6 1 6 5
M  V30 7 1 7 2
M  V30 8 1 8 4
M  V30 9 1 9 4
M  V30 10 1 10 4
M  V30 11 1 11 5
M  V30 12 1 12 6
M  V30 13 1 13 1
M  V30 END BOND
M  V30 END CTAB
M  END
$$$$
R-group 70 (5724-1)
     RDKit          3D

  0  0  0  0  0  0  0  0  0  0999 V3000
M  V30 BEGIN CTAB
M  V30 COUNTS 19 19 0 0 1
M  V30 BEGIN ATOM
M  V30 1 C 73.672200 54.914400 41.615700 0
M  V30 2 C 73.956500 55.660300 40.522900 0
M  V30 3 C 74.177300 57.150500 40.544700 0
M  V30 4 C 74.391400 57.653400 41.978500 0 CFG=2
M  V30 5 C 75.806700 57.258000 42.496300 0
M  V30 6 C 73.332600 57.097700 42.883100 0
M  V30 7 C 73.349200 55.581400 42.938100 0
M  V30 8 H 74.050400 55.251600 39.534900 0
M  V30 9 H 75.047900 57.360600 39.921900 0
M  V30 10 H 73.320600 57.636600 40.075900 0
M  V30 11 H 74.072300 58.702000 41.993300 0
M  V30 12 H 75.966900 56.181600 42.531300 0
M  V30 13 H 76.587800 57.661400 41.851900 0
M  V30 14 H 75.976600 57.647100 43.501700 0
M  V30 15 H 72.472200 57.440800 42.367600 0
M  V30 16 H 73.275000 57.556000 43.869100 0
M  V30 17 H 72.358700 55.258800 43.260200 0
M  V30 18 H 74.072400 55.277900 43.694400 0
M  V30 19 R 73.497100 53.400000 41.626000 0
M  V30 END ATOM
M  V30 BEGIN BOND
M  V30 1 2 2 1
M  V30 2 1 3 2
M  V30 3 1 4 3
M  V30 4 1 5 4
M  V30 5 1 6 4
M  V30 6 1 7 1
M  V30 7 1 7 6
M  V30 8 1 8 2
M  V30 9 1 9 3
M  V30 10 1 10 3
M  V30 11 1 4 11 CFG=3
M  V30 12 1 12 5
M  V30 13 1 13 5
M  V30 14 1 14 5
M  V30 15 1 15 6
M  V30 16 1 16 6
M  V30 17 1 17 7
M  V30 18 1 18 7
M  V30 19 1 19 1
M  V30 END BOND
M  V30 END CTAB
M  END
$$$$
R-group 71 (4823-1)
     RDKit          3D

  0  0  0  0  0  0  0  0  0  0999 V3000
M  V30 BEGIN CTAB
M  V30 COUNTS 12 12 0 0 1
M  V30 BEGIN ATOM
M  V30 1 C 72.774400 54.247000 41.961500 0
M  V30 2 C 73.824200 55.295200 41.897100 0
M  V30 3 C 74.668900 55.658400 42.905000 0
M  V30 4 C 75.677500 56.555500 42.485100 0
M  V30 5 C 75.592600 56.854900 41.154700 0
M  V30 6 S 74.160700 56.190800 40.437900 0
M  V30 7 H 71.954000 54.453300 41.271800 0
M  V30 8 H 72.292800 54.232800 42.925600 0
M  V30 9 H 74.634900 55.265900 43.912900 0
M  V30 10 H 76.469300 56.915700 43.134000 0
M  V30 11 H 76.232700 57.502400 40.577300 0
M  V30 12 R 73.297600 52.865100 41.606100 0
M  V30 END ATOM
M  V30 BEGIN BOND
M  V30 1 1 2 1
M  V30 2 2 3 2
M  V30 3 1 4 3
M  V30 4 2 5 4
M  V30 5 1 6 2
M  V30 6 1 6 5
M  V30 7 1 7 1
M  V30 8 1 8 1
M  V30 9 1 9 3
M  V30 10 1 10 4
M  V30 11 1 11 5
M  V30 12 1 12 1
M  V30 END BOND
M  V30 END CTAB
M  END
$$$$
R-group 72 (8303-1)
     RDKit          3D

  0  0  0  0  0  0  0  0  0  0999 V3000
M  V30 BEGIN CTAB
M  V30 COUNTS 18 19 0 0 1
M  V30 BEGIN ATOM
M  V30 1 N 73.112200 54.234300 42.124800 0
M  V30 2 C 73.948000 55.172400 41.682000 0
M  V30 3 O 74.872100 54.911300 40.923100 0
M  V30 4 C 73.626300 56.538700 42.178400 0 CFG=1
M  V30 5 C 74.602200 57.376300 42.950500 0 CFG=1
M  V30 6 C 76.069700 57.118900 43.085400 0
M  V30 7 O 76.469600 56.780900 41.775800 0
M  V30 8 C 75.759400 57.578300 40.886800 0
M  V30 9 C 74.367200 57.658800 41.507500 0 CFG=1
M  V30 10 H 72.620600 56.727400 42.531200 0
M  V30 11 H 74.179500 58.057900 43.680900 0
M  V30 12 H 76.289400 56.352400 43.826400 0
M  V30 13 H 76.561800 58.055800 43.320200 0
M  V30 14 H 75.738500 57.185500 39.874800 0
M  V30 15 H 76.348500 58.485200 40.920800 0
M  V30 16 H 73.684200 58.456800 41.197800 0
M  V30 17 H 72.412800 54.502100 42.797100 0
M  V30 18 R 73.278100 52.821000 41.892500 0
M  V30 END ATOM
M  V30 BEGIN BOND
M  V30 1 1 2 1
M  V30 2 2 3 2
M  V30 3 1 4 2
M  V30 4 1 5 4
M  V30 5 1 6 5
M  V30 6 1 7 6
M  V30 7 1 8 7
M  V30 8 1 9 4
M  V30 9 1 9 5
M  V30 10 1 9 8
M  V30 11 1 4 10 CFG=1
M  V30 12 1 5 11 CFG=1
M  V30 13 1 12 6
M  V30 14 1 13 6
M  V30 15 1 14 8
M  V30 16 1 15 8
M  V30 17 1 9 16 CFG=1
M  V30 18 1 17 1
M  V30 19 1 18 1
M  V30 END BOND
M  V30 END CTAB
M  END
$$$$
R-group 73 (39735-1)
     RDKit          3D

  0  0  0  0  0  0  0  0  0  0999 V3000
M  V30 BEGIN CTAB
M  V30 COUNTS 13 13 0 0 1
M  V30 BEGIN ATOM
M  V30 1 N 72.876400 54.089800 42.124900 0
M  V30 2 C 73.777700 55.124300 41.942600 0
M  V30 3 C 74.868100 55.335400 41.146300 0
M  V30 4 C 75.479900 56.579200 41.477400 0
M  V30 5 C 76.702300 57.169700 40.893200 0
M  V30 6 N 74.903700 57.257600 42.432300 0
M  V30 7 S 73.593100 56.483900 42.924600 0
M  V30 8 H 72.451100 54.131100 43.048200 0
M  V30 9 H 75.267900 54.677200 40.396500 0
M  V30 10 H 77.106600 56.525800 40.124900 0
M  V30 11 H 76.484300 58.139800 40.446800 0
M  V30 12 H 77.447800 57.283300 41.680200 0
M  V30 13 R 73.263000 52.782100 41.695400 0
M  V30 END ATOM
M  V30 BEGIN BOND
M  V30 1 1 2 1
M  V30 2 2 3 2
M  V30 3 1 4 3
M  V30 4 1 5 4
M  V30 5 2 6 4
M  V30 6 1 7 2
M  V30 7 1 7 6
M  V30 8 1 8 1
M  V30 9 1 9 3
M  V30 10 1 10 5
M  V30 11 1 11 5
M  V30 12 1 12 5
M  V30 13 1 13 1
M  V30 END BOND
M  V30 END CTAB
M  END
$$$$
R-group 74 (652-1)
     RDKit          3D

  0  0  0  0  0  0  0  0  0  0999 V3000
M  V30 BEGIN CTAB
M  V30 COUNTS 12 12 0 0 1
M  V30 BEGIN ATOM
M  V30 1 C 73.863900 54.565200 41.607400 0
M  V30 2 C 74.490300 55.434500 42.465000 0
M  V30 3 C 74.409900 56.775100 42.029800 0
M  V30 4 C 73.718200 56.886100 40.855300 0
M  V30 5 C 73.138400 58.086400 40.273400 0
M  V30 6 S 73.345600 55.372900 40.141500 0
M  V30 7 H 74.919500 55.176200 43.418500 0
M  V30 8 H 74.765100 57.596700 42.631400 0
M  V30 9 H 73.194900 58.857800 41.023700 0
M  V30 10 H 73.615700 58.385800 39.332500 0
M  V30 11 H 72.076700 57.890800 40.126800 0
M  V30 12 R 73.575000 53.118900 41.815800 0
M  V30 END ATOM
M  V30 BEGIN BOND
M  V30 1 2 2 1
M  V30 2 1 3 2
M  V30 3 2 4 3
M  V30 4 1 5 4
M  V30 5 1 6 1
M  V30 6 1 6 4
M  V30 7 1 7 2
M  V30 8 1 8 3
M  V30 9 1 9 5
M  V30 10 1 10 5
M  V30 11 1 11 5
M  V30 12 1 12 1
M  V30 END BOND
M  V30 END CTAB
M  END
$$$$
R-group 75 (40002-3)
     RDKit          3D

  0  0  0  0  0  0  0  0  0  0999 V3000
M  V30 BEGIN CTAB
M  V30 COUNTS 18 18 0 0 1
M  V30 BEGIN ATOM
M  V30 1 C 73.444600 54.935400 41.984500 0 CFG=2
M  V30 2 C 73.466200 55.940800 40.829300 0
M  V30 3 C 74.701400 55.700300 41.661600 0 CFG=1
M  V30 4 C 75.256600 56.712700 42.630800 0
M  V30 5 C 74.217300 57.733900 43.103500 0
M  V30 6 C 76.471800 57.426700 42.041100 0
M  V30 7 H 72.923300 55.253900 42.885300 0
M  V30 8 H 73.519800 55.609500 39.796600 0
M  V30 9 H 72.886400 56.851700 40.966600 0
M  V30 10 H 75.489600 55.117500 41.192600 0
M  V30 11 H 75.604700 56.155000 43.503100 0
M  V30 12 H 73.782900 58.301500 42.280600 0
M  V30 13 H 73.408700 57.289200 43.684500 0
M  V30 14 H 74.725900 58.457600 43.724600 0
M  V30 15 H 76.214300 58.053200 41.186100 0
M  V30 16 H 76.901700 58.057900 42.814900 0
M  V30 17 H 77.242900 56.738800 41.724800 0
M  V30 18 R 73.378100 53.429600 41.780500 0
M  V30 END ATOM
M  V30 BEGIN BOND
M  V30 1 1 2 1
M  V30 2 1 3 1
M  V30 3 1 3 2
M  V30 4 1 4 3
M  V30 5 1 5 4
M  V30 6 1 6 4
M  V30 7 1 1 7 CFG=1
M  V30 8 1 8 2
M  V30 9 1 9 2
M  V30 10 1 3 10 CFG=3
M  V30 11 1 11 4
M  V30 12 1 12 5
M  V30 13 1 13 5
M  V30 14 1 14 5
M  V30 15 1 15 6
M  V30 16 1 16 6
M  V30 17 1 17 6
M  V30 18 1 18 1
M  V30 END BOND
M  V30 END CTAB
M  END
$$$$
R-group 76 (10776-4)
     RDKit          3D

  0  0  0  0  0  0  0  0  0  0999 V3000
M  V30 BEGIN CTAB
M  V30 COUNTS 21 21 0 0 1
M  V30 BEGIN ATOM
M  V30 1 C 73.936600 54.945500 41.569300 0 CFG=1
M  V30 2 C 73.332700 55.714000 40.356300 0
M  V30 3 C 73.738500 57.186700 40.357800 0
M  V30 4 C 73.355200 57.839300 41.686800 0
M  V30 5 C 73.945600 57.106500 42.893100 0 CFG=2
M  V30 6 C 75.469400 57.240800 43.053100 0
M  V30 7 C 73.555600 55.641000 42.886000 0
M  V30 8 H 75.019800 55.013900 41.454900 0
M  V30 9 H 73.675200 55.311200 39.406200 0
M  V30 10 H 72.250500 55.617200 40.329700 0
M  V30 11 H 74.813300 57.257100 40.192200 0
M  V30 12 H 73.271200 57.711000 39.524300 0
M  V30 13 H 72.274700 57.905800 41.767300 0
M  V30 14 H 73.673500 58.859100 41.724900 0
M  V30 15 H 73.473400 57.562900 43.756200 0
M  V30 16 H 75.994600 57.403800 42.112600 0
M  V30 17 H 75.672500 58.058000 43.724600 0
M  V30 18 H 75.921200 56.367400 43.524700 0
M  V30 19 H 72.484500 55.549900 43.066300 0
M  V30 20 H 74.070300 55.172600 43.724900 0
M  V30 21 R 73.576800 53.439600 41.656000 0
M  V30 END ATOM
M  V30 BEGIN BOND
M  V30 1 1 2 1
M  V30 2 1 3 2
M  V30 3 1 4 3
M  V30 4 1 5 4
M  V30 5 1 6 5
M  V30 6 1 7 1
M  V30 7 1 7 5
M  V30 8 1 1 8 CFG=3
M  V30 9 1 9 2
M  V30 10 1 10 2
M  V30 11 1 11 3
M  V30 12 1 12 3
M  V30 13 1 13 4
M  V30 14 1 14 4
M  V30 15 1 5 15 CFG=1
M  V30 16 1 16 6
M  V30 17 1 17 6
M  V30 18 1 18 6
M  V30 19 1 19 7
M  V30 20 1 20 7
M  V30 21 1 21 1
M  V30 END BOND
M  V30 END CTAB
M  END
$$$$
R-group 77 (31003-2)
     RDKit          3D

  0  0  0  0  0  0  0  0  0  0999 V3000
M  V30 BEGIN CTAB
M  V30 COUNTS 21 21 0 0 1
M  V30 BEGIN ATOM
M  V30 1 C 73.534900 54.839100 41.639900 0 CFG=1
M  V30 2 C 73.532300 55.658500 42.938400 0
M  V30 3 C 74.284400 56.956900 42.652100 0
M  V30 4 C 74.724000 56.896800 41.178300 0
M  V30 5 C 73.671800 57.616700 40.293300 0
M  V30 6 C 76.158900 57.436400 40.994200 0
M  V30 7 C 74.696200 55.409400 40.835300 0
M  V30 8 H 72.636900 55.108500 41.095300 0
M  V30 9 H 72.525800 55.838100 43.319800 0
M  V30 10 H 74.074400 55.151700 43.724800 0
M  V30 11 H 73.680100 57.836300 42.867700 0
M  V30 12 H 75.141500 57.016700 43.323000 0
M  V30 13 H 74.074800 57.899200 39.324200 0
M  V30 14 H 72.794700 57.004800 40.087400 0
M  V30 15 H 73.270600 58.497400 40.775900 0
M  V30 16 H 76.313200 58.015900 40.085200 0
M  V30 17 H 76.485600 58.050900 41.825600 0
M  V30 18 H 76.871100 56.619200 40.966700 0
M  V30 19 H 75.614200 54.898500 41.126200 0
M  V30 20 H 74.554800 55.305400 39.761900 0
M  V30 21 R 73.467600 53.301500 41.764000 0
M  V30 END ATOM
M  V30 BEGIN BOND
M  V30 1 1 2 1
M  V30 2 1 3 2
M  V30 3 1 4 3
M  V30 4 1 5 4
M  V30 5 1 6 4
M  V30 6 1 7 1
M  V30 7 1 7 4
M  V30 8 1 1 8 CFG=3
M  V30 9 1 9 2
M  V30 10 1 10 2
M  V30 11 1 11 3
M  V30 12 1 12 3
M  V30 13 1 13 5
M  V30 14 1 14 5
M  V30 15 1 15 5
M  V30 16 1 16 6
M  V30 17 1 17 6
M  V30 18 1 18 6
M  V30 19 1 19 7
M  V30 20 1 20 7
M  V30 21 1 21 1
M  V30 END BOND
M  V30 END CTAB
M  END
$$$$
R-group 78 (4888-1)
     RDKit          3D

  0  0  0  0  0  0  0  0  0  0999 V3000
M  V30 BEGIN CTAB
M  V30 COUNTS 17 17 0 0 1
M  V30 BEGIN ATOM
M  V30 1 C 72.646700 54.247000 41.954600 0
M  V30 2 C 73.681500 55.342900 41.842700 0
M  V30 3 C 74.583300 55.551100 42.905000 0
M  V30 4 N 75.671800 56.323100 42.810200 0
M  V30 5 C 75.942800 56.858100 41.610500 0
M  V30 6 C 75.045800 56.822200 40.533200 0
M  V30 7 C 73.850300 56.107900 40.665600 0
M  V30 8 C 72.802600 56.205100 39.568800 0
M  V30 9 H 71.801600 54.457500 41.300200 0
M  V30 10 H 72.206700 54.224500 42.937200 0
M  V30 11 H 74.467800 55.048700 43.851800 0
M  V30 12 H 76.855600 57.431300 41.542000 0
M  V30 13 H 75.263500 57.372200 39.631600 0
M  V30 14 H 73.147600 56.864800 38.776400 0
M  V30 15 H 72.554900 55.248800 39.117400 0
M  V30 16 H 71.884700 56.634100 39.968700 0
M  V30 17 R 73.234700 52.871800 41.581900 0
M  V30 END ATOM
M  V30 BEGIN BOND
M  V30 1 1 2 1
M  V30 2 2 3 2
M  V30 3 1 4 3
M  V30 4 2 5 4
M  V30 5 1 6 5
M  V30 6 1 7 2
M  V30 7 2 7 6
M  V30 8 1 8 7
M  V30 9 1 9 1
M  V30 10 1 10 1
M  V30 11 1 11 3
M  V30 12 1 12 5
M  V30 13 1 13 6
M  V30 14 1 14 8
M  V30 15 1 15 8
M  V30 16 1 16 8
M  V30 17 1 17 1
M  V30 END BOND
M  V30 END CTAB
M  END
$$$$
R-group 79 (27091-1)
     RDKit          3D

  0  0  0  0  0  0  0  0  0  0999 V3000
M  V30 BEGIN CTAB
M  V30 COUNTS 9 8 0 0 1
M  V30 BEGIN ATOM
M  V30 1 N 73.672300 55.051300 42.425900 0
M  V30 2 C 74.479500 56.115400 42.302000 0
M  V30 3 O 75.547400 56.115000 41.695700 0
M  V30 4 C 73.944600 57.397700 42.924600 0
M  V30 5 F 73.269200 58.058000 41.988700 0
M  V30 6 H 73.237900 57.182400 43.726300 0
M  V30 7 H 72.875500 55.163600 43.042000 0
M  V30 8 H 74.727400 58.050800 43.320600 0
M  V30 9 R 73.758700 53.735100 41.789500 0
M  V30 END ATOM
M  V30 BEGIN BOND
M  V30 1 1 2 1
M  V30 2 2 3 2
M  V30 3 1 4 2
M  V30 4 1 5 4
M  V30 5 1 6 4
M  V30 6 1 7 1
M  V30 7 1 8 4
M  V30 8 1 9 1
M  V30 END BOND
M  V30 END CTAB
M  END
$$$$
R-group 80 (1062-1)
     RDKit          3D

  0  0  0  0  0  0  0  0  0  0999 V3000
M  V30 BEGIN CTAB
M  V30 COUNTS 16 16 0 0 1
M  V30 BEGIN ATOM
M  V30 1 C 72.645300 54.244800 41.933200 0
M  V30 2 C 73.680700 55.332700 41.764300 0
M  V30 3 C 74.574600 55.613400 42.815500 0
M  V30 4 C 75.672200 56.456800 42.604600 0
M  V30 5 C 75.904500 56.983000 41.328300 0
M  V30 6 C 74.935300 56.824900 40.324400 0
M  V30 7 C 73.811600 56.024100 40.539300 0
M  V30 8 O 72.892200 55.923400 39.535700 0
M  V30 9 H 71.796900 54.453900 41.286900 0
M  V30 10 H 72.237000 54.264000 42.926000 0
M  V30 11 H 74.446800 55.146600 43.780900 0
M  V30 12 H 76.370900 56.645500 43.403000 0
M  V30 13 H 76.775900 57.595500 41.147500 0
M  V30 14 H 75.068800 57.316300 39.374800 0
M  V30 15 H 73.155500 56.412900 38.764800 0
M  V30 16 R 73.214800 52.853900 41.595600 0
M  V30 END ATOM
M  V30 BEGIN BOND
M  V30 1 1 2 1
M  V30 2 2 3 2
M  V30 3 1 4 3
M  V30 4 2 5 4
M  V30 5 1 6 5
M  V30 6 1 7 2
M  V30 7 2 7 6
M  V30 8 1 8 7
M  V30 9 1 9 1
M  V30 10 1 10 1
M  V30 11 1 11 3
M  V30 12 1 12 4
M  V30 13 1 13 5
M  V30 14 1 14 6
M  V30 15 1 15 8
M  V30 16 1 16 1
M  V30 END BOND
M  V30 END CTAB
M  END
$$$$
R-group 81 (6871-1)
     RDKit          3D

  0  0  0  0  0  0  0  0  0  0999 V3000
M  V30 BEGIN CTAB
M  V30 COUNTS 12 12 0 0 1
M  V30 BEGIN ATOM
M  V30 1 C 73.709200 54.582800 41.267000 0
M  V30 2 N 73.137100 55.237300 40.243400 0
M  V30 3 C 73.275800 56.583600 40.222700 0
M  V30 4 C 73.981600 57.255800 41.241000 0
M  V30 5 C 74.683900 56.417000 42.105200 0
M  V30 6 N 75.673800 56.858300 42.925000 0
M  V30 7 N 74.524100 55.112800 42.153300 0
M  V30 8 H 72.757300 57.121100 39.441700 0
M  V30 9 H 74.065300 58.322500 41.323800 0
M  V30 10 H 75.812100 57.839700 43.120400 0
M  V30 11 H 76.114300 56.204400 43.556400 0
M  V30 12 R 73.418200 53.108000 41.507900 0
M  V30 END ATOM
M  V30 BEGIN BOND
M  V30 1 2 2 1
M  V30 2 1 3 2
M  V30 3 2 4 3
M  V30 4 1 5 4
M  V30 5 1 6 5
M  V30 6 1 7 1
M  V30 7 2 7 5
M  V30 8 1 8 3
M  V30 9 1 9 4
M  V30 10 1 10 6
M  V30 11 1 11 6
M  V30 12 1 12 1
M  V30 END BOND
M  V30 END CTAB
M  END
$$$$
R-group 82 (798-2)
     RDKit          3D

  0  0  0  0  0  0  0  0  0  0999 V3000
M  V30 BEGIN CTAB
M  V30 COUNTS 9 8 0 0 1
M  V30 BEGIN ATOM
M  V30 1 C 74.081100 55.379200 41.761600 0 CFG=2
M  V30 2 C 75.557800 55.764200 41.618800 0
M  V30 3 O 73.672200 56.058000 42.924700 0
M  V30 4 H 73.528800 55.843100 40.943800 0
M  V30 5 H 76.071300 55.258000 40.806400 0
M  V30 6 H 75.658600 56.835200 41.438400 0
M  V30 7 H 76.072200 55.557500 42.552200 0
M  V30 8 H 73.250600 55.447900 43.523000 0
M  V30 9 R 73.723000 53.853900 41.814800 0
M  V30 END ATOM
M  V30 BEGIN BOND
M  V30 1 1 2 1
M  V30 2 1 3 1
M  V30 3 1 1 4 CFG=3
M  V30 4 1 5 2
M  V30 5 1 6 2
M  V30 6 1 7 2
M  V30 7 1 8 3
M  V30 8 1 9 1
M  V30 END BOND
M  V30 END CTAB
M  END
$$$$
R-group 83 (803-1)
     RDKit          3D

  0  0  0  0  0  0  0  0  0  0999 V3000
M  V30 BEGIN CTAB
M  V30 COUNTS 11 11 0 0 1
M  V30 BEGIN ATOM
M  V30 1 C 73.606700 54.535200 41.500700 0
M  V30 2 C 74.075600 55.378900 42.524900 0
M  V30 3 C 74.178900 56.742300 42.267700 0
M  V30 4 N 73.862000 57.258000 41.075700 0
M  V30 5 C 73.442600 56.479800 40.077500 0
M  V30 6 C 73.272200 55.111800 40.248500 0
M  V30 7 H 74.314700 55.021700 43.513900 0
M  V30 8 H 74.506500 57.432100 43.030900 0
M  V30 9 H 73.207200 56.966800 39.142000 0
M  V30 10 H 72.885500 54.561000 39.407200 0
M  V30 11 R 73.445400 53.052200 41.761400 0
M  V30 END ATOM
M  V30 BEGIN BOND
M  V30 1 2 2 1
M  V30 2 1 3 2
M  V30 3 2 4 3
M  V30 4 1 5 4
M  V30 5 1 6 1
M  V30 6 2 6 5
M  V30 7 1 7 2
M  V30 8 1 8 3
M  V30 9 1 9 5
M  V30 10 1 10 6
M  V30 11 1 11 1
M  V30 END BOND
M  V30 END CTAB
M  END
$$$$
R-group 84 (10106-1)
     RDKit          3D

  0  0  0  0  0  0  0  0  0  0999 V3000
M  V30 BEGIN CTAB
M  V30 COUNTS 17 17 0 0 1
M  V30 BEGIN ATOM
M  V30 1 C 73.945000 54.874900 41.153300 0 CFG=1
M  V30 2 C 72.991300 55.536600 40.134500 0
M  V30 3 C 73.083200 57.046000 40.348800 0
M  V30 4 C 73.919400 57.227100 41.620200 0 CFG=1
M  V30 5 O 73.265500 58.057800 42.522900 0
M  V30 6 C 74.026900 55.867300 42.294400 0 CFG=2
M  V30 7 O 75.272300 55.765600 42.928500 0
M  V30 8 H 74.929800 54.846100 40.683300 0
M  V30 9 H 73.245000 55.269400 39.107800 0
M  V30 10 H 71.965200 55.215300 40.295200 0
M  V30 11 H 72.079000 57.472700 40.432900 0
M  V30 12 H 73.565500 57.532900 39.501200 0
M  V30 13 H 74.901500 57.631500 41.368000 0
M  V30 14 H 73.214600 55.698000 43.007500 0
M  V30 15 H 72.471500 57.631700 42.803100 0
M  V30 16 H 75.328500 54.912500 43.329300 0
M  V30 17 R 73.536900 53.447200 41.596700 0
M  V30 END ATOM
M  V30 BEGIN BOND
M  V30 1 1 2 1
M  V30 2 1 3 2
M  V30 3 1 4 3
M  V30 4 1 5 4
M  V30 5 1 6 1
M  V30 6 1 6 4
M  V30 7 1 7 6
M  V30 8 1 1 8 CFG=3
M  V30 9 1 9 2
M  V30 10 1 10 2
M  V30 11 1 11 3
M  V30 12 1 12 3
M  V30 13 1 4 13 CFG=3
M  V30 14 1 6 14 CFG=1
M  V30 15 1 15 5
M  V30 16 1 16 7
M  V30 17 1 17 1
M  V30 END BOND
M  V30 END CTAB
M  END
$$$$
R-group 85 (25435-1)
     RDKit          3D

  0  0  0  0  0  0  0  0  0  0999 V3000
M  V30 BEGIN CTAB
M  V30 COUNTS 19 19 0 0 1
M  V30 BEGIN ATOM
M  V30 1 C 73.545500 54.869500 41.599800 0 CFG=2
M  V30 2 C 73.180400 55.616600 40.272800 0
M  V30 3 C 74.010200 56.906700 40.249800 0
M  V30 4 C 74.858600 56.886300 41.526400 0 CFG=1
M  V30 5 C 76.285200 57.465000 41.359900 0
M  V30 6 O 74.071900 57.523400 42.524700 0
M  V30 7 C 74.930200 55.424000 41.930200 0
M  V30 8 H 72.876400 55.241900 42.377200 0
M  V30 9 H 73.460000 55.083000 39.373200 0
M  V30 10 H 72.116400 55.811000 40.136300 0
M  V30 11 H 74.649700 56.906400 39.365300 0
M  V30 12 H 73.384000 57.797500 40.183600 0
M  V30 13 H 76.863000 56.834900 40.684900 0
M  V30 14 H 76.333000 58.455600 40.924600 0
M  V30 15 H 76.825000 57.502700 42.308100 0
M  V30 16 H 75.211100 55.299300 42.976100 0
M  V30 17 H 75.673000 54.911100 41.323800 0
M  V30 18 H 74.537900 57.479700 43.345600 0
M  V30 19 R 73.447100 53.314300 41.653000 0
M  V30 END ATOM
M  V30 BEGIN BOND
M  V30 1 1 2 1
M  V30 2 1 3 2
M  V30 3 1 4 3
M  V30 4 1 5 4
M  V30 5 1 4 6 CFG=1
M  V30 6 1 7 1
M  V30 7 1 7 4
M  V30 8 1 1 8 CFG=1
M  V30 9 1 9 2
M  V30 10 1 10 2
M  V30 11 1 11 3
M  V30 12 1 12 3
M  V30 13 1 13 5
M  V30 14 1 14 5
M  V30 15 1 15 5
M  V30 16 1 16 7
M  V30 17 1 17 7
M  V30 18 1 18 6
M  V30 19 1 19 1
M  V30 END BOND
M  V30 END CTAB
M  END
$$$$
R-group 86 (41138-2)
     RDKit          3D

  0  0  0  0  0  0  0  0  0  0999 V3000
M  V30 BEGIN CTAB
M  V30 COUNTS 22 22 0 0 1
M  V30 BEGIN ATOM
M  V30 1 C 72.932400 54.291400 41.915800 0
M  V30 2 C 73.931100 55.126400 41.105400 0 CFG=2
M  V30 3 C 75.378100 55.125300 41.654500 0
M  V30 4 C 75.450000 55.817200 43.009600 0
M  V30 5 C 75.083300 57.267100 42.780700 0
M  V30 6 C 73.700200 57.458300 42.103900 0
M  V30 7 C 73.479800 56.554900 40.860000 0 CFG=1
M  V30 8 O 74.221900 56.889600 39.717300 0
M  V30 9 H 71.933000 54.442800 41.505600 0
M  V30 10 H 72.861700 54.653900 42.924900 0
M  V30 11 H 73.917500 54.691200 40.119800 0
M  V30 12 H 75.787800 54.141500 41.724500 0
M  V30 13 H 76.047900 55.629600 40.960500 0
M  V30 14 H 76.453800 55.773700 43.433800 0
M  V30 15 H 74.792800 55.356000 43.740800 0
M  V30 16 H 75.858300 57.657600 42.121400 0
M  V30 17 H 75.147300 57.825500 43.723400 0
M  V30 18 H 73.560600 58.505800 41.835500 0
M  V30 19 H 72.924800 57.230100 42.833500 0
M  V30 20 H 72.445500 56.590600 40.524700 0
M  V30 21 H 73.799000 57.599800 39.252900 0
M  V30 22 R 73.188300 52.785400 41.853600 0
M  V30 END ATOM
M  V30 BEGIN BOND
M  V30 1 1 2 1
M  V30 2 1 3 2
M  V30 3 1 4 3
M  V30 4 1 5 4
M  V30 5 1 6 5
M  V30 6 1 7 2
M  V30 7 1 7 6
M  V30 8 1 8 7
M  V30 9 1 9 1
M  V30 10 1 10 1
M  V30 11 1 2 11 CFG=3
M  V30 12 1 12 3
M  V30 13 1 13 3
M  V30 14 1 14 4
M  V30 15 1 15 4
M  V30 16 1 16 5
M  V30 17 1 17 5
M  V30 18 1 18 6
M  V30 19 1 19 6
M  V30 20 1 7 20 CFG=3
M  V30 21 1 21 8
M  V30 22 1 22 1
M  V30 END BOND
M  V30 END CTAB
M  END
$$$$
R-group 87 (13434-1)
     RDKit          3D

  0  0  0  0  0  0  0  0  0  0999 V3000
M  V30 BEGIN CTAB
M  V30 COUNTS 15 15 0 0 1
M  V30 BEGIN ATOM
M  V30 1 C 72.698300 54.261500 41.918800 0
M  V30 2 C 73.682400 55.344200 41.656900 0
M  V30 3 S 74.905300 55.682800 42.830700 0
M  V30 4 C 75.703600 56.760100 41.734900 0
M  V30 5 C 75.029300 56.854900 40.553400 0
M  V30 6 C 73.813600 56.130500 40.535100 0
M  V30 7 C 72.822600 56.185800 39.406800 0
M  V30 8 H 71.799400 54.427400 41.321600 0
M  V30 9 H 72.323100 54.295400 42.925100 0
M  V30 10 H 76.628200 57.243400 42.029500 0
M  V30 11 H 75.337600 57.471400 39.724200 0
M  V30 12 H 73.131800 56.882600 38.623700 0
M  V30 13 H 72.685400 55.217100 38.928100 0
M  V30 14 H 71.840500 56.501100 39.760900 0
M  V30 15 R 73.245900 52.873000 41.571600 0
M  V30 END ATOM
M  V30 BEGIN BOND
M  V30 1 1 2 1
M  V30 2 1 3 2
M  V30 3 1 4 3
M  V30 4 2 5 4
M  V30 5 2 6 2
M  V30 6 1 6 5
M  V30 7 1 7 6
M  V30 8 1 8 1
M  V30 9 1 9 1
M  V30 10 1 10 4
M  V30 11 1 11 5
M  V30 12 1 12 7
M  V30 13 1 13 7
M  V30 14 1 14 7
M  V30 15 1 15 1
M  V30 END BOND
M  V30 END CTAB
M  END
$$$$
R-group 88 (29063-3)
     RDKit          3D

  0  0  0  0  0  0  0  0  0  0999 V3000
M  V30 BEGIN CTAB
M  V30 COUNTS 18 18 0 0 1
M  V30 BEGIN ATOM
M  V30 1 C 73.509900 55.181600 41.640000 0 CFG=2
M  V30 2 C 72.947700 55.919800 40.392200 0
M  V30 3 C 73.272700 57.395800 40.655100 0
M  V30 4 C 74.416200 57.395100 41.683200 0
M  V30 5 C 74.838600 55.929900 41.856700 0 CFG=2
M  V30 6 C 75.927100 55.658900 40.810100 0
M  V30 7 H 72.895900 55.484600 42.491600 0
M  V30 8 H 73.494000 55.613900 39.501600 0
M  V30 9 H 71.901400 55.751600 40.124800 0
M  V30 10 H 73.557700 57.897600 39.729200 0
M  V30 11 H 72.417600 57.931800 41.062300 0
M  V30 12 H 74.070200 57.810600 42.631100 0
M  V30 13 H 75.247500 58.001300 41.324700 0
M  V30 14 H 75.234100 55.744100 42.856200 0
M  V30 15 H 75.674100 56.107100 39.849000 0
M  V30 16 H 76.871800 56.094600 41.128300 0
M  V30 17 H 76.071500 54.606000 40.627400 0
M  V30 18 R 73.443400 53.611400 41.679600 0
M  V30 END ATOM
M  V30 BEGIN BOND
M  V30 1 1 2 1
M  V30 2 1 3 2
M  V30 3 1 4 3
M  V30 4 1 5 1
M  V30 5 1 5 4
M  V30 6 1 6 5
M  V30 7 1 1 7 CFG=1
M  V30 8 1 8 2
M  V30 9 1 9 2
M  V30 10 1 10 3
M  V30 11 1 11 3
M  V30 12 1 12 4
M  V30 13 1 13 4
M  V30 14 1 5 14 CFG=1
M  V30 15 1 15 6
M  V30 16 1 16 6
M  V30 17 1 17 6
M  V30 18 1 18 1
M  V30 END BOND
M  V30 END CTAB
M  END
$$$$
R-group 89 (7086-1)
     RDKit          3D

  0  0  0  0  0  0  0  0  0  0999 V3000
M  V30 BEGIN CTAB
M  V30 COUNTS 15 15 0 0 1
M  V30 BEGIN ATOM
M  V30 1 C 73.869400 55.190600 42.139400 0 CFG=1
M  V30 2 C 75.293200 55.572400 42.561800 0
M  V30 3 C 75.208100 56.875000 41.784000 0 CFG=1
M  V30 4 C 76.449400 57.286700 40.994400 0
M  V30 5 C 73.981900 56.296900 41.063900 0
M  V30 6 H 73.198900 55.553800 42.923300 0
M  V30 7 H 75.444100 55.687300 43.636300 0
M  V30 8 H 76.046100 54.926600 42.120400 0
M  V30 9 H 74.871300 57.657700 42.460000 0
M  V30 10 H 76.871500 56.442800 40.446600 0
M  V30 11 H 76.243600 58.058000 40.258200 0
M  V30 12 H 77.228500 57.658400 41.657700 0
M  V30 13 H 74.232000 55.953800 40.061800 0
M  V30 14 H 73.127400 56.975900 41.033300 0
M  V30 15 R 73.535700 53.709700 41.811800 0
M  V30 END ATOM
M  V30 BEGIN BOND
M  V30 1 1 2 1
M  V30 2 1 3 2
M  V30 3 1 4 3
M  V30 4 1 5 1
M  V30 5 1 5 3
M  V30 6 1 1 6 CFG=1
M  V30 7 1 7 2
M  V30 8 1 8 2
M  V30 9 1 3 9 CFG=1
M  V30 10 1 10 4
M  V30 11 1 11 4
M  V30 12 1 12 4
M  V30 13 1 13 5
M  V30 14 1 14 5
M  V30 15 1 15 1
M  V30 END BOND
M  V30 END CTAB
M  END
$$$$
R-group 90 (31004-2)
     RDKit          3D

  0  0  0  0  0  0  0  0  0  0999 V3000
M  V30 BEGIN CTAB
M  V30 COUNTS 18 18 0 0 1
M  V30 BEGIN ATOM
M  V30 1 C 73.625300 55.092800 41.649200 0 CFG=1
M  V30 2 C 73.448900 55.888500 42.938700 0
M  V30 3 C 73.949000 57.273400 42.550000 0
M  V30 4 C 75.163700 56.979600 41.666400 0 CFG=1
M  V30 5 C 76.471500 57.047400 42.436600 0
M  V30 6 C 74.951200 55.587900 41.074800 0
M  V30 7 H 72.872500 55.480700 40.968000 0
M  V30 8 H 72.425600 55.901400 43.301800 0
M  V30 9 H 74.077400 55.484100 43.728700 0
M  V30 10 H 73.183500 57.789500 41.967200 0
M  V30 11 H 74.182800 57.904900 43.406800 0
M  V30 12 H 75.210800 57.657800 40.828100 0
M  V30 13 H 76.471700 56.280200 43.212800 0
M  V30 14 H 77.272000 56.862100 41.727300 0
M  V30 15 H 76.655800 58.007700 42.918900 0
M  V30 16 H 75.769000 54.917700 41.330300 0
M  V30 17 H 74.909200 55.665100 39.991200 0
M  V30 18 R 73.421200 53.559300 41.739400 0
M  V30 END ATOM
M  V30 BEGIN BOND
M  V30 1 1 2 1
M  V30 2 1 3 2
M  V30 3 1 4 3
M  V30 4 1 5 4
M  V30 5 1 6 1
M  V30 6 1 6 4
M  V30 7 1 1 7 CFG=3
M  V30 8 1 8 2
M  V30 9 1 9 2
M  V30 10 1 10 3
M  V30 11 1 11 3
M  V30 12 1 4 12 CFG=3
M  V30 13 1 13 5
M  V30 14 1 14 5
M  V30 15 1 15 5
M  V30 16 1 16 6
M  V30 17 1 17 6
M  V30 18 1 18 1
M  V30 END BOND
M  V30 END CTAB
M  END
$$$$
R-group 91 (25613-1)
     RDKit          3D

  0  0  0  0  0  0  0  0  0  0999 V3000
M  V30 BEGIN CTAB
M  V30 COUNTS 11 11 0 0 1
M  V30 BEGIN ATOM
M  V30 1 C 74.079100 55.372600 41.637500 0
M  V30 2 O 74.072200 55.916700 42.924700 0
M  V30 3 C 75.304100 55.818100 40.828900 0
M  V30 4 O 74.472500 56.333200 39.762000 0
M  V30 5 C 73.329200 56.274400 40.637700 0
M  V30 6 H 75.876300 56.615200 41.307400 0
M  V30 7 H 75.979400 55.022700 40.522300 0
M  V30 8 H 72.449100 55.857700 40.151800 0
M  V30 9 H 73.087700 57.262000 41.037000 0
M  V30 10 H 73.340400 55.540500 43.401200 0
M  V30 11 R 73.707500 53.859100 41.776000 0
M  V30 END ATOM
M  V30 BEGIN BOND
M  V30 1 1 2 1
M  V30 2 1 3 1
M  V30 3 1 4 3
M  V30 4 1 5 1
M  V30 5 1 5 4
M  V30 6 1 6 3
M  V30 7 1 7 3
M  V30 8 1 8 5
M  V30 9 1 9 5
M  V30 10 1 10 2
M  V30 11 1 11 1
M  V30 END BOND
M  V30 END CTAB
M  END
$$$$
R-group 92 (16633-3)
     RDKit          3D

  0  0  0  0  0  0  0  0  0  0999 V3000
M  V30 BEGIN CTAB
M  V30 COUNTS 16 16 0 0 1
M  V30 BEGIN ATOM
M  V30 1 N 73.761000 54.568600 41.302000 0
M  V30 2 C 72.872800 55.190000 40.327700 0
M  V30 3 C 73.211200 56.671500 40.383200 0 CFG=2
M  V30 4 O 74.109700 56.858200 39.325100 0
M  V30 5 C 73.940100 56.852400 41.729300 0 CFG=1
M  V30 6 O 73.274800 57.753100 42.559100 0
M  V30 7 C 73.850600 55.492300 42.397700 0
M  V30 8 H 73.036900 54.792700 39.325000 0
M  V30 9 H 71.821400 54.994500 40.525100 0
M  V30 10 H 72.334000 57.308100 40.255700 0
M  V30 11 H 74.985300 57.147300 41.594200 0
M  V30 12 H 72.948400 55.420900 43.007300 0
M  V30 13 H 74.708400 55.299900 43.045100 0
M  V30 14 H 73.726400 57.428800 38.666700 0
M  V30 15 H 73.383500 58.620100 42.194100 0
M  V30 16 R 73.463000 53.193000 41.657800 0
M  V30 END ATOM
M  V30 BEGIN BOND
M  V30 1 1 2 1
M  V30 2 1 3 2
M  V30 3 1 4 3
M  V30 4 1 5 3
M  V30 5 1 6 5
M  V30 6 1 7 1
M  V30 7 1 7 5
M  V30 8 1 8 2
M  V30 9 1 9 2
M  V30 10 1 3 10 CFG=3
M  V30 11 1 5 11 CFG=3
M  V30 12 1 12 7
M  V30 13 1 13 7
M  V30 14 1 14 4
M  V30 15 1 15 6
M  V30 16 1 16 1
M  V30 END BOND
M  V30 END CTAB
M  END
$$$$
R-group 93 (27092-1)
     RDKit          3D

  0  0  0  0  0  0  0  0  0  0999 V3000
M  V30 BEGIN CTAB
M  V30 COUNTS 9 8 0 0 1
M  V30 BEGIN ATOM
M  V30 1 N 73.672200 54.978200 42.402900 0
M  V30 2 C 74.382900 56.087600 42.169400 0
M  V30 3 O 75.369200 56.147800 41.438200 0
M  V30 4 C 73.852000 57.332300 42.869300 0
M  V30 5 F 74.872100 58.038400 43.330900 0
M  V30 6 F 73.150700 58.064100 42.003300 0
M  V30 7 H 72.950000 55.057500 43.112000 0
M  V30 8 H 73.206500 57.094300 43.716100 0
M  V30 9 R 73.740200 53.657000 41.787100 0
M  V30 END ATOM
M  V30 BEGIN BOND
M  V30 1 1 2 1
M  V30 2 2 3 2
M  V30 3 1 4 2
M  V30 4 1 5 4
M  V30 5 1 6 4
M  V30 6 1 7 1
M  V30 7 1 8 4
M  V30 8 1 9 1
M  V30 END BOND
M  V30 END CTAB
M  END
$$$$
R-group 94 (32345-1)
     RDKit          3D

  0  0  0  0  0  0  0  0  0  0999 V3000
M  V30 BEGIN CTAB
M  V30 COUNTS 15 15 0 0 1
M  V30 BEGIN ATOM
M  V30 1 C 72.640100 54.198400 41.951800 0
M  V30 2 C 73.680300 55.295000 41.823200 0
M  V30 3 C 74.526300 55.602100 42.834100 0
M  V30 4 C 75.670700 56.456700 42.621900 0
M  V30 5 C 75.920000 56.857600 41.370200 0
M  V30 6 N 74.990300 56.626200 40.361000 0
M  V30 7 C 73.830600 55.974700 40.529100 0
M  V30 8 O 72.990900 55.960000 39.633700 0
M  V30 9 H 71.786200 54.406400 41.306600 0
M  V30 10 H 72.215200 54.191300 42.938800 0
M  V30 11 H 74.413500 55.120300 43.792000 0
M  V30 12 H 76.349700 56.686700 43.432300 0
M  V30 13 H 76.765300 57.464400 41.075900 0
M  V30 14 H 75.150500 57.078400 39.470900 0
M  V30 15 R 73.199300 52.809300 41.599800 0
M  V30 END ATOM
M  V30 BEGIN BOND
M  V30 1 1 2 1
M  V30 2 2 3 2
M  V30 3 1 4 3
M  V30 4 2 5 4
M  V30 5 1 6 5
M  V30 6 1 7 2
M  V30 7 1 7 6
M  V30 8 2 8 7
M  V30 9 1 9 1
M  V30 10 1 10 1
M  V30 11 1 11 3
M  V30 12 1 12 4
M  V30 13 1 13 5
M  V30 14 1 14 6
M  V30 15 1 15 1
M  V30 END BOND
M  V30 END CTAB
M  END
$$$$
R-group 95 (19838-1)
     RDKit          3D

  0  0  0  0  0  0  0  0  0  0999 V3000
M  V30 BEGIN CTAB
M  V30 COUNTS 11 11 0 0 1
M  V30 BEGIN ATOM
M  V30 1 C 73.672100 54.589300 41.393900 0
M  V30 2 N 73.271100 55.233300 40.338500 0
M  V30 3 C 73.427100 56.623400 40.332000 0
M  V30 4 C 74.082700 57.257800 41.326300 0
M  V30 5 C 74.783900 56.471300 42.333000 0
M  V30 6 O 75.689200 56.860400 43.041800 0
M  V30 7 N 74.398900 55.201600 42.401500 0
M  V30 8 H 72.913100 57.157700 39.544200 0
M  V30 9 H 74.079000 58.335800 41.376500 0
M  V30 10 H 74.783600 54.631300 43.142800 0
M  V30 11 R 73.458100 53.113100 41.644900 0
M  V30 END ATOM
M  V30 BEGIN BOND
M  V30 1 2 2 1
M  V30 2 1 3 2
M  V30 3 2 4 3
M  V30 4 1 5 4
M  V30 5 2 6 5
M  V30 6 1 7 1
M  V30 7 1 7 5
M  V30 8 1 8 3
M  V30 9 1 9 4
M  V30 10 1 10 7
M  V30 11 1 11 1
M  V30 END BOND
M  V30 END CTAB
M  END
$$$$
R-group 96 (11937-1)
     RDKit          3D

  0  0  0  0  0  0  0  0  0  0999 V3000
M  V30 BEGIN CTAB
M  V30 COUNTS 23 25 0 0 1
M  V30 BEGIN ATOM
M  V30 1 C 73.984400 55.007200 41.613600 0 CFG=2
M  V30 2 C 73.474100 55.686100 42.921500 0
M  V30 3 C 73.851600 57.174000 43.011300 0 CFG=1
M  V30 4 C 75.379800 57.164100 42.951000 0
M  V30 5 C 75.575400 56.786600 41.458800 0 CFG=1
M  V30 6 C 75.492700 55.270800 41.420800 0
M  V30 7 C 74.263200 57.163900 40.698600 0 CFG=2
M  V30 8 C 73.435400 57.907000 41.738600 0
M  V30 9 C 73.515300 55.851200 40.427000 0
M  V30 10 H 72.409800 55.541900 43.077600 0
M  V30 11 H 73.989800 55.195300 43.724900 0
M  V30 12 H 73.421700 57.655900 43.888600 0
M  V30 13 H 75.813200 56.422000 43.623300 0
M  V30 14 H 75.854300 58.057200 43.324200 0
M  V30 15 H 76.498600 57.175600 41.026700 0
M  V30 16 H 76.071700 54.797400 42.183100 0
M  V30 17 H 75.884900 54.914900 40.472200 0
M  V30 18 H 74.419200 57.658000 39.746700 0
M  V30 19 H 73.675400 58.953100 41.800300 0
M  V30 20 H 72.370700 57.870300 41.546300 0
M  V30 21 H 73.827800 55.449500 39.462600 0
M  V30 22 H 72.436400 55.959900 40.362500 0
M  V30 23 R 73.582500 53.501700 41.661200 0
M  V30 END ATOM
M  V30 BEGIN BOND
M  V30 1 1 2 1
M  V30 2 1 3 2
M  V30 3 1 4 3
M  V30 4 1 5 4
M  V30 5 1 6 1
M  V30 6 1 6 5
M  V30 7 1 7 5
M  V30 8 1 8 3
M  V30 9 1 8 7
M  V30 10 1 9 1
M  V30 11 1 9 7
M  V30 12 1 10 2
M  V30 13 1 11 2
M  V30 14 1 3 12 CFG=1
M  V30 15 1 13 4
M  V30 16 1 14 4
M  V30 17 1 5 15 CFG=3
M  V30 18 1 16 6
M  V30 19 1 17 6
M  V30 20 1 7 18 CFG=3
M  V30 21 1 19 8
M  V30 22 1 20 8
M  V30 23 1 21 9
M  V30 24 1 22 9
M  V30 25 1 1 23 CFG=3
M  V30 END BOND
M  V30 END CTAB
M  END
$$$$
R-group 97 (43699-3)
     RDKit          3D

  0  0  0  0  0  0  0  0  0  0999 V3000
M  V30 BEGIN CTAB
M  V30 COUNTS 20 21 0 0 1
M  V30 BEGIN ATOM
M  V30 1 O 73.522700 54.620000 42.036500 0
M  V30 2 C 74.817800 55.185800 41.958900 0 CFG=2
M  V30 3 C 75.051800 55.839600 43.324500 0
M  V30 4 C 75.125800 57.302100 42.931800 0 CFG=2
M  V30 5 C 73.731200 57.779600 42.443800 0
M  V30 6 C 73.637500 57.219400 41.016400 0
M  V30 7 C 74.891800 56.347700 40.946500 0 CFG=1
M  V30 8 C 75.923100 57.219100 41.627900 0
M  V30 9 H 75.642300 54.509400 41.747900 0
M  V30 10 H 74.237400 55.644000 44.024200 0
M  V30 11 H 75.984200 55.499000 43.776000 0
M  V30 12 H 75.556200 57.924400 43.722100 0
M  V30 13 H 72.922900 57.427000 43.086000 0
M  V30 14 H 73.669300 58.858100 42.384300 0
M  V30 15 H 73.672200 58.041400 40.293300 0
M  V30 16 H 72.724300 56.668700 40.813600 0
M  V30 17 H 75.150800 56.055300 39.927800 0
M  V30 18 H 76.875400 56.711900 41.746600 0
M  V30 19 H 76.079100 58.150200 41.094300 0
M  V30 20 R 73.412200 53.223200 41.902000 0
M  V30 END ATOM
M  V30 BEGIN BOND
M  V30 1 1 2 1
M  V30 2 1 3 2
M  V30 3 1 4 3
M  V30 4 1 5 4
M  V30 5 1 6 5
M  V30 6 1 7 2
M  V30 7 1 7 6
M  V30 8 1 8 4
M  V30 9 1 8 7
M  V30 10 1 2 9 CFG=3
M  V30 11 1 10 3
M  V30 12 1 11 3
M  V30 13 1 4 12 CFG=1
M  V30 14 1 13 5
M  V30 15 1 14 5
M  V30 16 1 15 6
M  V30 17 1 16 6
M  V30 18 1 7 17 CFG=3
M  V30 19 1 18 8
M  V30 20 1 19 8
M  V30 21 1 20 1
M  V30 END BOND
M  V30 END CTAB
M  END
$$$$
R-group 98 (2635-3)
     RDKit          3D

  0  0  0  0  0  0  0  0  0  0999 V3000
M  V30 BEGIN CTAB
M  V30 COUNTS 13 13 0 0 1
M  V30 BEGIN ATOM
M  V30 1 C 73.851500 55.144500 42.173100 0 CFG=1
M  V30 2 C 74.930900 55.896400 42.928100 0
M  V30 3 C 75.004300 55.778300 41.427400 0 CFG=2
M  V30 4 C 74.714800 56.929900 40.493500 0
M  V30 5 O 74.071000 56.458300 39.325200 0
M  V30 6 H 72.910800 55.682300 42.131100 0
M  V30 7 H 74.678100 56.877000 43.324100 0
M  V30 8 H 75.669500 55.343400 43.501900 0
M  V30 9 H 75.812800 55.138500 41.088300 0
M  V30 10 H 74.074300 57.658400 40.990500 0
M  V30 11 H 75.656300 57.415100 40.231800 0
M  V30 12 H 73.976100 57.177900 38.710900 0
M  V30 13 R 73.634100 53.632100 42.109900 0
M  V30 END ATOM
M  V30 BEGIN BOND
M  V30 1 1 2 1
M  V30 2 1 3 1
M  V30 3 1 3 2
M  V30 4 1 4 3
M  V30 5 1 5 4
M  V30 6 1 1 6 CFG=3
M  V30 7 1 7 2
M  V30 8 1 8 2
M  V30 9 1 3 9 CFG=1
M  V30 10 1 10 4
M  V30 11 1 11 4
M  V30 12 1 12 5
M  V30 13 1 13 1
M  V30 END BOND
M  V30 END CTAB
M  END
$$$$
R-group 99 (11210-1)
     RDKit          3D

  0  0  0  0  0  0  0  0  0  0999 V3000
M  V30 BEGIN CTAB
M  V30 COUNTS 17 16 0 0 1
M  V30 BEGIN ATOM
M  V30 1 N 73.221600 54.248700 42.121300 0
M  V30 2 C 74.093600 55.121300 41.629700 0
M  V30 3 O 74.872500 54.889600 40.718300 0
M  V30 4 N 74.072600 56.245100 42.326500 0
M  V30 5 C 75.096200 57.257700 42.318600 0
M  V30 6 C 75.737000 57.568800 40.939000 0
M  V30 7 C 76.246000 56.860200 43.227900 0
M  V30 8 H 74.494700 58.058000 42.732500 0
M  V30 9 H 76.373400 58.457200 40.936300 0
M  V30 10 H 76.404100 56.774600 40.599900 0
M  V30 11 H 74.975600 57.652900 40.166300 0
M  V30 12 H 76.872700 57.734500 43.315000 0
M  V30 13 H 76.041300 56.526900 44.241600 0
M  V30 14 H 76.809800 56.058500 42.746100 0
M  V30 15 H 72.626000 54.544900 42.884100 0
M  V30 16 H 73.382600 56.320500 43.058200 0
M  V30 17 R 73.304700 52.825200 41.935100 0
M  V30 END ATOM
M  V30 BEGIN BOND
M  V30 1 1 2 1
M  V30 2 2 3 2
M  V30 3 1 4 2
M  V30 4 1 5 4
M  V30 5 1 6 5
M  V30 6 1 7 5
M  V30 7 1 8 5
M  V30 8 1 9 6
M  V30 9 1 10 6
M  V30 10 1 11 6
M  V30 11 1 12 7
M  V30 12 1 13 7
M  V30 13 1 14 7
M  V30 14 1 15 1
M  V30 15 1 16 4
M  V30 16 1 17 1
M  V30 END BOND
M  V30 END CTAB
M  END
$$$$
R-group 100 (4558-1)
     RDKit          3D

  0  0  0  0  0  0  0  0  0  0999 V3000
M  V30 BEGIN CTAB
M  V30 COUNTS 13 12 0 0 1
M  V30 BEGIN ATOM
M  V30 1 N 73.734800 55.015700 42.124700 0
M  V30 2 C 75.093400 55.514100 41.922700 0
M  V30 3 C 75.061800 56.911900 41.292200 0 CFG=1
M  V30 4 C 76.473200 57.418200 40.968900 0
M  V30 5 F 74.362800 56.857800 40.155000 0
M  V30 6 H 73.405200 55.284500 43.046300 0
M  V30 7 H 75.615400 55.532300 42.879200 0
M  V30 8 H 75.670600 54.859500 41.276100 0
M  V30 9 H 74.545400 57.613600 41.948000 0
M  V30 10 H 77.121900 57.373200 41.842900 0
M  V30 11 H 76.916600 56.814900 40.178700 0
M  V30 12 H 76.472300 58.449600 40.620400 0
M  V30 13 R 73.556000 53.573500 41.967700 0
M  V30 END ATOM
M  V30 BEGIN BOND
M  V30 1 1 2 1
M  V30 2 1 3 2
M  V30 3 1 4 3
M  V30 4 1 5 3
M  V30 5 1 6 1
M  V30 6 1 7 2
M  V30 7 1 8 2
M  V30 8 1 3 9 CFG=1
M  V30 9 1 10 4
M  V30 10 1 11 4
M  V30 11 1 12 4
M  V30 12 1 13 1
M  V30 END BOND
M  V30 END CTAB
M  END
$$$$
R-group 101 (10677-1)
     RDKit          3D

  0  0  0  0  0  0  0  0  0  0999 V3000
M  V30 BEGIN CTAB
M  V30 COUNTS 17 17 0 0 1
M  V30 BEGIN ATOM
M  V30 1 C 72.655900 54.272700 41.949300 0
M  V30 2 C 73.685500 55.379900 41.831500 0
M  V30 3 C 74.543100 55.636100 42.924600 0
M  V30 4 C 75.671900 56.457100 42.778300 0
M  V30 5 C 75.995300 56.961500 41.512300 0
M  V30 6 C 75.058900 56.855100 40.475300 0
M  V30 7 C 73.884400 56.108400 40.633900 0
M  V30 8 N 72.959600 56.092000 39.587800 0
M  V30 9 H 71.800200 54.456700 41.298400 0
M  V30 10 H 72.217700 54.268300 42.934000 0
M  V30 11 H 74.355100 55.174200 43.878500 0
M  V30 12 H 76.335100 56.635200 43.611400 0
M  V30 13 H 76.893300 57.542800 41.367700 0
M  V30 14 H 75.251000 57.349600 39.536000 0
M  V30 15 H 73.182500 56.558300 38.713100 0
M  V30 16 H 72.190100 55.434100 39.573000 0
M  V30 17 R 73.240400 52.893000 41.597900 0
M  V30 END ATOM
M  V30 BEGIN BOND
M  V30 1 1 2 1
M  V30 2 2 3 2
M  V30 3 1 4 3
M  V30 4 2 5 4
M  V30 5 1 6 5
M  V30 6 1 7 2
M  V30 7 2 7 6
M  V30 8 1 8 7
M  V30 9 1 9 1
M  V30 10 1 10 1
M  V30 11 1 11 3
M  V30 12 1 12 4
M  V30 13 1 13 5
M  V30 14 1 14 6
M  V30 15 1 15 8
M  V30 16 1 16 8
M  V30 17 1 17 1
M  V30 END BOND
M  V30 END CTAB
M  END
$$$$
R-group 102 (7271-1)
     RDKit          3D

  0  0  0  0  0  0  0  0  0  0999 V3000
M  V30 BEGIN CTAB
M  V30 COUNTS 13 12 0 0 1
M  V30 BEGIN ATOM
M  V30 1 C 72.472500 58.742300 41.960700 0
M  V30 2 O 73.272200 57.713000 41.410500 0
M  V30 3 C 74.197400 57.149900 42.317900 0
M  V30 4 C 74.508800 55.788000 41.773500 0
M  V30 5 O 75.433100 55.646200 40.982900 0
M  V30 6 N 73.672200 54.838700 42.191700 0
M  V30 7 H 71.654500 58.973600 41.281900 0
M  V30 8 H 72.069100 58.458000 42.924900 0
M  V30 9 H 73.011600 59.657900 42.124600 0
M  V30 10 H 73.789500 57.063200 43.324700 0
M  V30 11 H 75.149200 57.658000 42.376900 0
M  V30 12 H 72.979700 55.140200 42.864900 0
M  V30 13 R 73.591500 53.434700 41.856300 0
M  V30 END ATOM
M  V30 BEGIN BOND
M  V30 1 1 2 1
M  V30 2 1 3 2
M  V30 3 1 4 3
M  V30 4 2 5 4
M  V30 5 1 6 4
M  V30 6 1 7 1
M  V30 7 1 8 1
M  V30 8 1 9 1
M  V30 9 1 10 3
M  V30 10 1 11 3
M  V30 11 1 12 6
M  V30 12 1 13 6
M  V30 END BOND
M  V30 END CTAB
M  END
$$$$
R-group 103 (8924-2)
     RDKit          3D

  0  0  0  0  0  0  0  0  0  0999 V3000
M  V30 BEGIN CTAB
M  V30 COUNTS 23 24 0 0 1
M  V30 BEGIN ATOM
M  V30 1 C 74.132000 54.945600 41.619600 0
M  V30 2 C 73.673200 55.683300 42.619200 0
M  V30 3 C 73.983000 57.118200 42.819500 0 CFG=1
M  V30 4 C 75.431900 57.155100 43.324400 0
M  V30 5 C 76.300100 57.084100 42.071800 0
M  V30 6 C 75.318400 57.087500 40.896600 0 CFG=1
M  V30 7 C 74.993000 55.606900 40.538200 0
M  V30 8 C 74.050000 57.781300 41.461000 0 CFG=1
M  V30 9 C 72.869200 57.707700 40.494600 0
M  V30 10 H 72.999500 55.254100 43.324700 0
M  V30 11 H 73.267600 57.586300 43.494800 0
M  V30 12 H 75.635500 58.057700 43.872200 0
M  V30 13 H 75.672600 56.328000 43.994900 0
M  V30 14 H 76.872000 56.156300 42.101300 0
M  V30 15 H 76.976600 57.932400 42.021400 0
M  V30 16 H 75.737700 57.598500 40.029600 0
M  V30 17 H 75.913500 55.047800 40.404300 0
M  V30 18 H 74.457400 55.579300 39.590100 0
M  V30 19 H 74.072200 58.832200 41.724400 0
M  V30 20 H 72.459900 56.705000 40.374400 0
M  V30 21 H 72.075500 58.381800 40.806600 0
M  V30 22 H 73.235900 58.025700 39.514900 0
M  V30 23 R 73.741800 53.484700 41.601600 0
M  V30 END ATOM
M  V30 BEGIN BOND
M  V30 1 2 2 1
M  V30 2 1 3 2
M  V30 3 1 4 3
M  V30 4 1 5 4
M  V30 5 1 6 5
M  V30 6 1 7 1
M  V30 7 1 7 6
M  V30 8 1 8 3
M  V30 9 1 8 6
M  V30 10 1 9 8
M  V30 11 1 10 2
M  V30 12 1 3 11 CFG=1
M  V30 13 1 12 4
M  V30 14 1 13 4
M  V30 15 1 14 5
M  V30 16 1 15 5
M  V30 17 1 6 16 CFG=3
M  V30 18 1 17 7
M  V30 19 1 18 7
M  V30 20 1 8 19 CFG=1
M  V30 21 1 20 9
M  V30 22 1 21 9
M  V30 23 1 22 9
M  V30 24 1 23 1
M  V30 END BOND
M  V30 END CTAB
M  END
$$$$
R-group 104 (18697-1)
     RDKit          3D

  0  0  0  0  0  0  0  0  0  0999 V3000
M  V30 BEGIN CTAB
M  V30 COUNTS 17 17 0 0 1
M  V30 BEGIN ATOM
M  V30 1 C 72.653000 54.196100 41.935500 0
M  V30 2 C 73.673500 55.302800 41.740000 0
M  V30 3 C 74.579700 55.587900 42.775900 0
M  V30 4 C 75.649800 56.457100 42.526500 0
M  V30 5 N 75.876000 56.999100 41.322100 0
M  V30 6 C 74.934700 56.830200 40.379000 0
M  V30 7 C 73.794100 56.031100 40.528400 0
M  V30 8 C 72.785600 55.996900 39.389700 0
M  V30 9 H 71.769800 54.337900 41.319200 0
M  V30 10 H 72.258000 54.226000 42.934800 0
M  V30 11 H 74.474700 55.127800 43.747300 0
M  V30 12 H 76.371300 56.672000 43.306100 0
M  V30 13 H 75.101000 57.360300 39.455000 0
M  V30 14 H 72.751000 56.976300 38.911000 0
M  V30 15 H 73.072400 55.280700 38.624000 0
M  V30 16 H 71.771900 55.776200 39.725500 0
M  V30 17 R 73.228700 52.811200 41.600300 0
M  V30 END ATOM
M  V30 BEGIN BOND
M  V30 1 1 2 1
M  V30 2 2 3 2
M  V30 3 1 4 3
M  V30 4 2 5 4
M  V30 5 1 6 5
M  V30 6 1 7 2
M  V30 7 2 7 6
M  V30 8 1 8 7
M  V30 9 1 9 1
M  V30 10 1 10 1
M  V30 11 1 11 3
M  V30 12 1 12 4
M  V30 13 1 13 6
M  V30 14 1 14 8
M  V30 15 1 15 8
M  V30 16 1 16 8
M  V30 17 1 17 1
M  V30 END BOND
M  V30 END CTAB
M  END
$$$$
R-group 105 (6982-1)
     RDKit          3D

  0  0  0  0  0  0  0  0  0  0999 V3000
M  V30 BEGIN CTAB
M  V30 COUNTS 17 17 0 0 1
M  V30 BEGIN ATOM
M  V30 1 C 74.063800 54.982700 41.582900 0
M  V30 2 O 74.670700 55.478400 40.634800 0
M  V30 3 N 73.681700 55.670900 42.643500 0
M  V30 4 C 73.976600 57.014300 42.924200 0
M  V30 5 C 75.476600 57.219800 43.180400 0
M  V30 6 O 76.072100 56.058000 43.723900 0
M  V30 7 C 73.107800 58.055000 42.281500 0
M  V30 8 C 72.871700 57.662500 43.724600 0
M  V30 9 H 75.972300 57.437800 42.234100 0
M  V30 10 H 75.671300 58.050000 43.848300 0
M  V30 11 H 73.544300 59.024400 42.104500 0
M  V30 12 H 72.472200 57.693000 41.482900 0
M  V30 13 H 72.074100 56.988800 44.036300 0
M  V30 14 H 73.019800 58.460200 44.423200 0
M  V30 15 H 73.207300 55.171500 43.393800 0
M  V30 16 H 75.948400 55.360000 43.099400 0
M  V30 17 R 73.691800 53.509000 41.685600 0
M  V30 END ATOM
M  V30 BEGIN BOND
M  V30 1 2 2 1
M  V30 2 1 3 1
M  V30 3 1 4 3
M  V30 4 1 5 4
M  V30 5 1 6 5
M  V30 6 1 7 4
M  V30 7 1 8 4
M  V30 8 1 8 7
M  V30 9 1 9 5
M  V30 10 1 10 5
M  V30 11 1 11 7
M  V30 12 1 12 7
M  V30 13 1 13 8
M  V30 14 1 14 8
M  V30 15 1 15 3
M  V30 16 1 16 6
M  V30 17 1 17 1
M  V30 END BOND
M  V30 END CTAB
M  END
$$$$
R-group 106 (26177-1)
     RDKit          3D

  0  0  0  0  0  0  0  0  0  0999 V3000
M  V30 BEGIN CTAB
M  V30 COUNTS 12 12 0 0 1
M  V30 BEGIN ATOM
M  V30 1 C 72.774600 54.293600 41.899600 0
M  V30 2 N 73.805200 55.300100 41.649100 0
M  V30 3 S 74.872300 55.658000 42.924300 0
M  V30 4 C 75.703800 56.775200 41.896100 0
M  V30 5 C 75.154400 56.857900 40.686000 0
M  V30 6 C 73.983400 56.025700 40.526500 0
M  V30 7 O 73.257500 55.990200 39.536000 0
M  V30 8 H 71.887500 54.458000 41.288600 0
M  V30 9 H 72.428800 54.374600 42.924700 0
M  V30 10 H 76.577800 57.307700 42.240900 0
M  V30 11 H 75.541200 57.487500 39.898700 0
M  V30 12 R 73.248500 52.867400 41.599400 0
M  V30 END ATOM
M  V30 BEGIN BOND
M  V30 1 1 2 1
M  V30 2 1 3 2
M  V30 3 1 4 3
M  V30 4 2 5 4
M  V30 5 1 6 2
M  V30 6 1 6 5
M  V30 7 2 7 6
M  V30 8 1 8 1
M  V30 9 1 9 1
M  V30 10 1 10 4
M  V30 11 1 11 5
M  V30 12 1 12 1
M  V30 END BOND
M  V30 END CTAB
M  END
$$$$
R-group 107 (43699-4)
     RDKit          3D

  0  0  0  0  0  0  0  0  0  0999 V3000
M  V30 BEGIN CTAB
M  V30 COUNTS 20 21 0 0 1
M  V30 BEGIN ATOM
M  V30 1 O 73.559500 54.582700 42.180900 0
M  V30 2 C 74.788500 55.132200 41.760400 0 CFG=1
M  V30 3 C 74.530500 55.798400 40.424200 0
M  V30 4 C 74.837900 57.239100 40.707300 0 CFG=1
M  V30 5 C 73.706300 57.790100 41.613200 0
M  V30 6 C 74.076100 57.214200 42.979900 0
M  V30 7 C 75.262100 56.291200 42.649200 0 CFG=2
M  V30 8 C 76.049800 57.107300 41.628800 0
M  V30 9 H 75.611100 54.429100 41.651300 0
M  V30 10 H 75.273900 55.450100 39.732600 0
M  V30 11 H 73.539000 55.635000 39.996200 0
M  V30 12 H 75.005200 57.658000 39.719400 0
M  V30 13 H 73.674900 58.866500 41.723200 0
M  V30 14 H 72.718900 57.471900 41.282200 0
M  V30 15 H 73.244900 56.693900 43.460700 0
M  V30 16 H 74.389700 58.015900 43.642800 0
M  V30 17 H 75.823300 55.969000 43.524300 0
M  V30 18 H 76.471900 58.043500 41.998700 0
M  V30 19 H 76.871700 56.550000 41.180400 0
M  V30 20 R 73.395100 53.186700 42.041000 0
M  V30 END ATOM
M  V30 BEGIN BOND
M  V30 1 1 2 1
M  V30 2 1 3 2
M  V30 3 1 4 3
M  V30 4 1 5 4
M  V30 5 1 6 5
M  V30 6 1 7 2
M  V30 7 1 7 6
M  V30 8 1 8 4
M  V30 9 1 8 7
M  V30 10 1 2 9 CFG=3
M  V30 11 1 10 3
M  V30 12 1 11 3
M  V30 13 1 4 12 CFG=3
M  V30 14 1 13 5
M  V30 15 1 14 5
M  V30 16 1 15 6
M  V30 17 1 16 6
M  V30 18 1 7 17 CFG=1
M  V30 19 1 18 8
M  V30 20 1 19 8
M  V30 21 1 20 1
M  V30 END BOND
M  V30 END CTAB
M  END
$$$$
R-group 108 (27094-2)
     RDKit          3D

  0  0  0  0  0  0  0  0  0  0999 V3000
M  V30 BEGIN CTAB
M  V30 COUNTS 13 12 0 0 1
M  V30 BEGIN ATOM
M  V30 1 N 73.905800 54.983100 42.276800 0
M  V30 2 C 74.771200 55.695700 41.545600 0
M  V30 3 O 75.272600 55.261100 40.524700 0
M  V30 4 C 75.105500 57.109500 41.991300 0 CFG=1
M  V30 5 C 76.330900 57.657400 41.210600 0
M  V30 6 C 73.864600 57.879100 41.840300 0
M  V30 7 N 72.872200 58.458000 41.725800 0
M  V30 8 H 76.472900 58.718700 41.323600 0
M  V30 9 H 77.261700 57.205600 41.554900 0
M  V30 10 H 76.251700 57.493800 40.135800 0
M  V30 11 H 73.498100 55.412700 43.097300 0
M  V30 12 H 75.337600 57.102800 43.056500 0
M  V30 13 R 73.584100 53.568400 42.093700 0
M  V30 END ATOM
M  V30 BEGIN BOND
M  V30 1 1 2 1
M  V30 2 2 3 2
M  V30 3 1 4 2
M  V30 4 1 5 4
M  V30 5 1 6 4
M  V30 6 3 7 6
M  V30 7 1 8 5
M  V30 8 1 9 5
M  V30 9 1 10 5
M  V30 10 1 11 1
M  V30 11 1 4 12 CFG=1
M  V30 12 1 13 1
M  V30 END BOND
M  V30 END CTAB
M  END
$$$$
R-group 109 (35006-1)
     RDKit          3D

  0  0  0  0  0  0  0  0  0  0999 V3000
M  V30 BEGIN CTAB
M  V30 COUNTS 20 21 0 0 1
M  V30 BEGIN ATOM
M  V30 1 C 73.877300 54.865600 41.386900 0 CFG=2
M  V30 2 C 75.345900 55.375900 41.210900 0
M  V30 3 C 75.269800 56.860300 41.641500 0
M  V30 4 C 73.759600 56.999100 41.857100 0 CFG=1
M  V30 5 O 73.272300 58.057700 42.591400 0
M  V30 6 C 73.065500 56.960100 40.499600 0
M  V30 7 C 73.030500 55.467200 40.232800 0
M  V30 8 C 73.463600 55.700500 42.577100 0
M  V30 9 H 76.050600 54.861300 41.854700 0
M  V30 10 H 75.707000 55.286000 40.186600 0
M  V30 11 H 75.670500 57.543700 40.889800 0
M  V30 12 H 75.815600 57.028300 42.573200 0
M  V30 13 H 72.072400 57.387200 40.524000 0
M  V30 14 H 73.627800 57.503900 39.734500 0
M  V30 15 H 73.420100 55.235100 39.243900 0
M  V30 16 H 71.997400 55.125200 40.264800 0
M  V30 17 H 72.448700 55.563300 42.925400 0
M  V30 18 H 74.100600 55.553900 43.450300 0
M  V30 19 H 73.635000 58.856700 42.227800 0
M  V30 20 R 73.609200 53.355400 41.627500 0
M  V30 END ATOM
M  V30 BEGIN BOND
M  V30 1 1 2 1
M  V30 2 1 3 2
M  V30 3 1 4 3
M  V30 4 1 4 5 CFG=1
M  V30 5 1 6 4
M  V30 6 1 7 1
M  V30 7 1 7 6
M  V30 8 1 8 1
M  V30 9 1 8 4
M  V30 10 1 9 2
M  V30 11 1 10 2
M  V30 12 1 11 3
M  V30 13 1 12 3
M  V30 14 1 13 6
M  V30 15 1 14 6
M  V30 16 1 15 7
M  V30 17 1 16 7
M  V30 18 1 17 8
M  V30 19 1 18 8
M  V30 20 1 19 5
M  V30 21 1 1 20 CFG=1
M  V30 END BOND
M  V30 END CTAB
M  END
$$$$
R-group 110 (4038-1)
     RDKit          3D

  0  0  0  0  0  0  0  0  0  0999 V3000
M  V30 BEGIN CTAB
M  V30 COUNTS 15 15 0 0 1
M  V30 BEGIN ATOM
M  V30 1 C 73.648900 54.936000 41.341200 0 CFG=1
M  V30 2 N 73.976400 55.682900 42.524800 0
M  V30 3 C 75.078700 56.401100 42.384800 0
M  V30 4 O 75.676800 56.934400 43.294400 0
M  V30 5 N 75.413100 56.435600 41.102300 0
M  V30 6 C 74.714200 55.432900 40.341500 0 CFG=2
M  V30 7 C 74.104500 56.031800 39.059800 0
M  V30 8 H 72.676300 55.257400 40.974600 0
M  V30 9 H 75.467600 54.677800 40.126400 0
M  V30 10 H 73.567500 55.274000 38.490400 0
M  V30 11 H 73.402100 56.835400 39.287000 0
M  V30 12 H 74.867700 56.457800 38.410000 0
M  V30 13 H 73.521000 55.517700 43.414000 0
M  V30 14 H 76.236500 56.907400 40.759000 0
M  V30 15 R 73.542200 53.424400 41.656100 0
M  V30 END ATOM
M  V30 BEGIN BOND
M  V30 1 1 2 1
M  V30 2 1 3 2
M  V30 3 2 4 3
M  V30 4 1 5 3
M  V30 5 1 6 1
M  V30 6 1 6 5
M  V30 7 1 7 6
M  V30 8 1 1 8 CFG=3
M  V30 9 1 6 9 CFG=3
M  V30 10 1 10 7
M  V30 11 1 11 7
M  V30 12 1 12 7
M  V30 13 1 13 2
M  V30 14 1 14 5
M  V30 15 1 15 1
M  V30 END BOND
M  V30 END CTAB
M  END
$$$$
R-group 111 (18506-3)
     RDKit          3D

  0  0  0  0  0  0  0  0  0  0999 V3000
M  V30 BEGIN CTAB
M  V30 COUNTS 16 16 0 0 1
M  V30 BEGIN ATOM
M  V30 1 C 74.316200 55.307900 41.635600 0 CFG=1
M  V30 2 C 73.452200 56.246800 40.748900 0
M  V30 3 C 73.254600 57.541200 41.539100 0
M  V30 4 C 73.368900 57.115700 42.994500 0
M  V30 5 C 74.478800 56.080300 42.963700 0 CFG=2
M  V30 6 O 75.694400 56.784400 42.924400 0
M  V30 7 H 75.301300 55.232800 41.171700 0
M  V30 8 H 73.931400 56.442400 39.788800 0
M  V30 9 H 72.472800 55.831000 40.524500 0
M  V30 10 H 72.327400 58.060900 41.303900 0
M  V30 11 H 74.071800 58.221800 41.327000 0
M  V30 12 H 72.472200 56.612100 43.335100 0
M  V30 13 H 73.558300 57.950700 43.669400 0
M  V30 14 H 74.455600 55.459000 43.853700 0
M  V30 15 H 75.749300 57.365500 43.670200 0
M  V30 16 R 73.774600 53.848700 41.788300 0
M  V30 END ATOM
M  V30 BEGIN BOND
M  V30 1 1 2 1
M  V30 2 1 3 2
M  V30 3 1 4 3
M  V30 4 1 5 1
M  V30 5 1 5 4
M  V30 6 1 6 5
M  V30 7 1 1 7 CFG=3
M  V30 8 1 8 2
M  V30 9 1 9 2
M  V30 10 1 10 3
M  V30 11 1 11 3
M  V30 12 1 12 4
M  V30 13 1 13 4
M  V30 14 1 5 14 CFG=1
M  V30 15 1 15 6
M  V30 16 1 16 1
M  V30 END BOND
M  V30 END CTAB
M  END
$$$$
R-group 112 (28823-1)
     RDKit          3D

  0  0  0  0  0  0  0  0  0  0999 V3000
M  V30 BEGIN CTAB
M  V30 COUNTS 11 11 0 0 1
M  V30 BEGIN ATOM
M  V30 1 C 73.670800 54.481100 41.353300 0
M  V30 2 C 73.512600 55.148600 40.155700 0
M  V30 3 S 73.672800 56.857900 40.332200 0
M  V30 4 C 73.842300 56.646600 42.043400 0
M  V30 5 N 73.672100 57.658000 42.923100 0
M  V30 6 C 73.969500 55.359100 42.414000 0
M  V30 7 H 73.275700 54.759300 39.177500 0
M  V30 8 H 73.670300 57.529000 43.924900 0
M  V30 9 H 73.621800 58.620900 42.622500 0
M  V30 10 H 74.076100 55.046400 43.440900 0
M  V30 11 R 73.481700 53.022400 41.595900 0
M  V30 END ATOM
M  V30 BEGIN BOND
M  V30 1 2 2 1
M  V30 2 1 3 2
M  V30 3 1 4 3
M  V30 4 1 5 4
M  V30 5 1 6 1
M  V30 6 2 6 4
M  V30 7 1 7 2
M  V30 8 1 8 5
M  V30 9 1 9 5
M  V30 10 1 10 6
M  V30 11 1 11 1
M  V30 END BOND
M  V30 END CTAB
M  END
$$$$
R-group 113 (40645-1)
     RDKit          3D

  0  0  0  0  0  0  0  0  0  0999 V3000
M  V30 BEGIN CTAB
M  V30 COUNTS 15 16 0 0 1
M  V30 BEGIN ATOM
M  V30 1 N 73.275400 54.340400 42.124600 0
M  V30 2 C 74.601000 54.947400 41.979200 0 CFG=2
M  V30 3 C 74.850300 55.755200 43.242600 0
M  V30 4 C 74.872000 57.049200 42.527900 0
M  V30 5 C 73.671800 57.516100 42.021700 0
M  V30 6 N 73.655300 56.823000 40.813800 0
M  V30 7 C 74.726200 56.027500 40.933600 0
M  V30 8 N 75.635000 56.858200 41.380500 0
M  V30 9 H 72.955700 54.483400 43.083300 0
M  V30 10 H 75.446400 54.284100 41.820200 0
M  V30 11 H 74.071800 55.657900 43.997200 0
M  V30 12 H 75.813300 55.523800 43.699200 0
M  V30 13 H 72.762200 57.862600 42.488900 0
M  V30 14 H 72.791000 56.497700 40.407100 0
M  V30 15 R 73.305500 52.918800 41.883400 0
M  V30 END ATOM
M  V30 BEGIN BOND
M  V30 1 1 2 1
M  V30 2 1 3 2
M  V30 3 1 4 3
M  V30 4 2 5 4
M  V30 5 1 6 5
M  V30 6 1 7 2
M  V30 7 1 7 6
M  V30 8 1 8 4
M  V30 9 2 8 7
M  V30 10 1 9 1
M  V30 11 1 2 10 CFG=3
M  V30 12 1 11 3
M  V30 13 1 12 3
M  V30 14 1 13 5
M  V30 15 1 14 6
M  V30 16 1 15 1
M  V30 END BOND
M  V30 END CTAB
M  END
$$$$
R-group 114 (43052-1)
     RDKit          3D

  0  0  0  0  0  0  0  0  0  0999 V3000
M  V30 BEGIN CTAB
M  V30 COUNTS 12 12 0 0 1
M  V30 BEGIN ATOM
M  V30 1 C 73.907100 54.877200 41.746700 0
M  V30 2 C 74.516500 55.546200 42.773700 0
M  V30 3 O 74.645200 56.857900 42.525500 0
M  V30 4 C 74.078800 57.042300 41.325300 0
M  V30 5 C 73.672300 55.884800 40.749100 0
M  V30 6 C 73.007200 55.838000 39.390800 0
M  V30 7 H 74.887600 55.255000 43.745700 0
M  V30 8 H 74.056200 58.057800 40.995200 0
M  V30 9 H 73.002400 56.829000 38.938700 0
M  V30 10 H 73.530800 55.183200 38.694700 0
M  V30 11 H 71.974000 55.507300 39.489700 0
M  V30 12 R 73.568900 53.398400 41.758500 0
M  V30 END ATOM
M  V30 BEGIN BOND
M  V30 1 2 2 1
M  V30 2 1 3 2
M  V30 3 1 4 3
M  V30 4 1 5 1
M  V30 5 2 5 4
M  V30 6 1 6 5
M  V30 7 1 7 2
M  V30 8 1 8 4
M  V30 9 1 9 6
M  V30 10 1 10 6
M  V30 11 1 11 6
M  V30 12 1 12 1
M  V30 END BOND
M  V30 END CTAB
M  END
$$$$
R-group 115 (22931-1)
     RDKit          3D

  0  0  0  0  0  0  0  0  0  0999 V3000
M  V30 BEGIN CTAB
M  V30 COUNTS 20 20 0 0 1
M  V30 BEGIN ATOM
M  V30 1 O 73.674400 54.625100 41.674400 0
M  V30 2 C 74.863500 55.110900 41.065600 0 CFG=2
M  V30 3 C 75.545900 55.920100 42.158500 0
M  V30 4 C 74.929200 57.290200 42.340600 0
M  V30 5 C 73.409000 57.437800 42.193400 0
M  V30 6 O 73.061100 57.663100 40.833000 0
M  V30 7 C 73.115000 56.593900 39.906500 0
M  V30 8 C 74.499200 55.924600 39.805400 0
M  V30 9 H 75.575600 54.341200 40.794200 0
M  V30 10 H 75.527600 55.366400 43.098500 0
M  V30 11 H 76.599000 56.059600 41.895400 0
M  V30 12 H 75.255200 57.663200 43.318800 0
M  V30 13 H 75.347400 57.900400 41.549800 0
M  V30 14 H 72.879700 56.622300 42.662300 0
M  V30 15 H 73.096800 58.320700 42.729300 0
M  V30 16 H 72.331200 55.878700 40.124200 0
M  V30 17 H 72.852400 56.999200 38.937200 0
M  V30 18 H 75.268900 56.677200 39.581900 0
M  V30 19 H 74.464300 55.264500 38.935100 0
M  V30 20 R 73.464500 53.242600 41.795500 0
M  V30 END ATOM
M  V30 BEGIN BOND
M  V30 1 1 2 1
M  V30 2 1 3 2
M  V30 3 1 4 3
M  V30 4 1 5 4
M  V30 5 1 6 5
M  V30 6 1 7 6
M  V30 7 1 8 2
M  V30 8 1 8 7
M  V30 9 1 2 9 CFG=3
M  V30 10 1 10 3
M  V30 11 1 11 3
M  V30 12 1 12 4
M  V30 13 1 13 4
M  V30 14 1 14 5
M  V30 15 1 15 5
M  V30 16 1 16 7
M  V30 17 1 17 7
M  V30 18 1 18 8
M  V30 19 1 19 8
M  V30 20 1 20 1
M  V30 END BOND
M  V30 END CTAB
M  END
$$$$
R-group 116 (31480-3)
     RDKit          3D

  0  0  0  0  0  0  0  0  0  0999 V3000
M  V30 BEGIN CTAB
M  V30 COUNTS 13 13 0 0 1
M  V30 BEGIN ATOM
M  V30 1 C 74.390600 55.198700 41.684600 0 CFG=1
M  V30 2 C 73.545500 56.324300 41.060900 0
M  V30 3 C 73.331100 56.880000 42.473100 0
M  V30 4 C 74.574200 56.116000 42.899700 0 CFG=2
M  V30 5 O 75.763200 56.857900 42.924500 0
M  V30 6 H 75.342800 55.148500 41.154700 0
M  V30 7 H 74.147300 56.994600 40.443400 0
M  V30 8 H 72.646500 56.019200 40.524600 0
M  V30 9 H 72.472300 56.483400 43.006100 0
M  V30 10 H 73.399500 57.966000 42.554400 0
M  V30 11 H 74.441700 55.597800 43.847600 0
M  V30 12 H 75.724700 57.450600 43.662800 0
M  V30 13 R 73.796000 53.787200 41.857000 0
M  V30 END ATOM
M  V30 BEGIN BOND
M  V30 1 1 2 1
M  V30 2 1 3 2
M  V30 3 1 4 1
M  V30 4 1 4 3
M  V30 5 1 5 4
M  V30 6 1 1 6 CFG=3
M  V30 7 1 7 2
M  V30 8 1 8 2
M  V30 9 1 9 3
M  V30 10 1 10 3
M  V30 11 1 4 11 CFG=1
M  V30 12 1 12 5
M  V30 13 1 13 1
M  V30 END BOND
M  V30 END CTAB
M  END
$$$$
R-group 117 (5518-4)
     RDKit          3D

  0  0  0  0  0  0  0  0  0  0999 V3000
M  V30 BEGIN CTAB
M  V30 COUNTS 22 23 0 0 1
M  V30 BEGIN ATOM
M  V30 1 C 72.827000 54.154700 42.008200 0
M  V30 2 C 73.957500 55.188800 42.162900 0 CFG=2
M  V30 3 C 73.442700 56.499400 42.711800 0
M  V30 4 C 74.031000 57.530700 41.753700 0 CFG=2
M  V30 5 C 73.313500 57.522800 40.395200 0
M  V30 6 C 73.775900 56.189600 39.797800 0
M  V30 7 C 74.724000 55.636600 40.892100 0 CFG=1
M  V30 8 C 75.376900 56.914900 41.397600 0
M  V30 9 H 72.067900 54.458600 41.294700 0
M  V30 10 H 72.269100 54.075800 42.929500 0
M  V30 11 H 74.694900 54.836400 42.880900 0
M  V30 12 H 72.410800 56.488900 42.927400 0
M  V30 13 H 73.685100 56.688000 43.725000 0
M  V30 14 H 74.070500 58.473800 42.244100 0
M  V30 15 H 72.233200 57.603000 40.493100 0
M  V30 16 H 73.667800 58.326000 39.748700 0
M  V30 17 H 74.319900 56.368000 38.867100 0
M  V30 18 H 72.922100 55.555200 39.566800 0
M  V30 19 H 75.435400 54.898300 40.524400 0
M  V30 20 H 76.031800 56.761500 42.256700 0
M  V30 21 H 75.919400 57.456000 40.619700 0
M  V30 22 R 73.294000 52.765500 41.622700 0
M  V30 END ATOM
M  V30 BEGIN BOND
M  V30 1 1 2 1
M  V30 2 1 3 2
M  V30 3 1 4 3
M  V30 4 1 5 4
M  V30 5 1 6 5
M  V30 6 1 7 2
M  V30 7 1 7 6
M  V30 8 1 8 4
M  V30 9 1 8 7
M  V30 10 1 9 1
M  V30 11 1 10 1
M  V30 12 1 2 11 CFG=1
M  V30 13 1 12 3
M  V30 14 1 13 3
M  V30 15 1 4 14 CFG=1
M  V30 16 1 15 5
M  V30 17 1 16 5
M  V30 18 1 17 6
M  V30 19 1 18 6
M  V30 20 1 7 19 CFG=3
M  V30 21 1 20 8
M  V30 22 1 21 8
M  V30 23 1 22 1
M  V30 END BOND
M  V30 END CTAB
M  END
$$$$
R-group 118 (9792-2)
     RDKit          3D

  0  0  0  0  0  0  0  0  0  0999 V3000
M  V30 BEGIN CTAB
M  V30 COUNTS 13 13 0 0 1
M  V30 BEGIN ATOM
M  V30 1 C 73.204800 54.746600 41.777300 0 CFG=2
M  V30 2 C 73.137100 55.642300 40.527600 0
M  V30 3 C 74.346500 55.664500 41.426600 0 CFG=1
M  V30 4 C 74.503200 56.815300 42.338700 0
M  V30 5 N 75.688700 56.857800 42.924700 0
M  V30 6 O 73.628400 57.652400 42.547000 0
M  V30 7 H 72.619900 55.052200 42.644600 0
M  V30 8 H 73.313900 55.248700 39.533100 0
M  V30 9 H 72.472200 56.504100 40.522600 0
M  V30 10 H 75.261700 55.192900 41.071800 0
M  V30 11 H 76.377300 56.148100 42.720100 0
M  V30 12 H 75.907100 57.615500 43.560800 0
M  V30 13 R 73.334800 53.230400 41.697600 0
M  V30 END ATOM
M  V30 BEGIN BOND
M  V30 1 1 2 1
M  V30 2 1 3 1
M  V30 3 1 3 2
M  V30 4 1 4 3
M  V30 5 1 5 4
M  V30 6 2 6 4
M  V30 7 1 1 7 CFG=1
M  V30 8 1 8 2
M  V30 9 1 9 2
M  V30 10 1 3 10 CFG=3
M  V30 11 1 11 5
M  V30 12 1 12 5
M  V30 13 1 13 1
M  V30 END BOND
M  V30 END CTAB
M  END
$$$$
R-group 119 (12649-1)
     RDKit          3D

  0  0  0  0  0  0  0  0  0  0999 V3000
M  V30 BEGIN CTAB
M  V30 COUNTS 19 19 0 0 1
M  V30 BEGIN ATOM
M  V30 1 C 72.882600 54.338200 41.993600 0
M  V30 2 N 73.801700 55.400500 41.604600 0
M  V30 3 C 73.674300 56.157900 40.443500 0
M  V30 4 C 72.478900 56.146800 39.558700 0
M  V30 5 C 74.824600 56.858000 40.295000 0
M  V30 6 C 75.609900 56.683400 41.457500 0
M  V30 7 C 74.937900 55.839200 42.290400 0
M  V30 8 C 75.333800 55.451400 43.681200 0
M  V30 9 H 71.910700 54.458200 41.518900 0
M  V30 10 H 72.681100 54.388700 43.035300 0
M  V30 11 H 72.679900 56.727100 38.655200 0
M  V30 12 H 72.174100 55.135900 39.273100 0
M  V30 13 H 71.651300 56.625800 40.079500 0
M  V30 14 H 75.047800 57.490300 39.449600 0
M  V30 15 H 76.561200 57.151700 41.676300 0
M  V30 16 H 75.899500 56.268900 44.121800 0
M  V30 17 H 74.475700 55.252800 44.312900 0
M  V30 18 H 75.983200 54.583500 43.720600 0
M  V30 19 R 73.359400 52.948700 41.580400 0
M  V30 END ATOM
M  V30 BEGIN BOND
M  V30 1 1 2 1
M  V30 2 1 3 2
M  V30 3 1 4 3
M  V30 4 2 5 3
M  V30 5 1 6 5
M  V30 6 1 7 2
M  V30 7 2 7 6
M  V30 8 1 8 7
M  V30 9 1 9 1
M  V30 10 1 10 1
M  V30 11 1 11 4
M  V30 12 1 12 4
M  V30 13 1 13 4
M  V30 14 1 14 5
M  V30 15 1 15 6
M  V30 16 1 16 8
M  V30 17 1 17 8
M  V30 18 1 18 8
M  V30 19 1 19 1
M  V30 END BOND
M  V30 END CTAB
M  END
$$$$
R-group 120 (2936-2)
     RDKit          3D

  0  0  0  0  0  0  0  0  0  0999 V3000
M  V30 BEGIN CTAB
M  V30 COUNTS 18 18 0 0 1
M  V30 BEGIN ATOM
M  V30 1 N 73.676600 54.893900 41.681900 0
M  V30 2 C 73.258300 55.529000 42.924400 0
M  V30 3 C 73.370000 57.040700 42.864100 0
M  V30 4 O 74.738900 57.257900 42.609900 0
M  V30 5 C 75.134600 56.851300 41.316900 0 CFG=1
M  V30 6 C 76.542400 57.376300 41.046000 0
M  V30 7 C 75.040900 55.332100 41.360000 0
M  V30 8 H 72.235100 55.258100 43.182500 0
M  V30 9 H 73.923100 55.220600 43.724800 0
M  V30 10 H 72.747200 57.485500 42.087100 0
M  V30 11 H 73.088300 57.491300 43.814200 0
M  V30 12 H 74.460800 57.254800 40.557700 0
M  V30 13 H 76.952900 56.948800 40.136700 0
M  V30 14 H 76.530200 58.457900 40.924700 0
M  V30 15 H 77.222200 57.143900 41.861500 0
M  V30 16 H 75.736600 54.972900 42.116700 0
M  V30 17 H 75.388800 54.948700 40.410600 0
M  V30 18 R 73.493100 53.440600 41.708200 0
M  V30 END ATOM
M  V30 BEGIN BOND
M  V30 1 1 2 1
M  V30 2 1 3 2
M  V30 3 1 4 3
M  V30 4 1 5 4
M  V30 5 1 6 5
M  V30 6 1 7 1
M  V30 7 1 7 5
M  V30 8 1 8 2
M  V30 9 1 9 2
M  V30 10 1 10 3
M  V30 11 1 11 3
M  V30 12 1 5 12 CFG=3
M  V30 13 1 13 6
M  V30 14 1 14 6
M  V30 15 1 15 6
M  V30 16 1 16 7
M  V30 17 1 17 7
M  V30 18 1 18 1
M  V30 END BOND
M  V30 END CTAB
M  END
$$$$
R-group 121 (15534-1)
     RDKit          3D

  0  0  0  0  0  0  0  0  0  0999 V3000
M  V30 BEGIN CTAB
M  V30 COUNTS 16 16 0 0 1
M  V30 BEGIN ATOM
M  V30 1 C 73.894000 54.516500 41.655200 0
M  V30 2 C 73.340300 55.322100 40.637400 0
M  V30 3 C 73.593700 56.701100 40.655900 0
M  V30 4 C 72.874000 57.613000 39.724300 0
M  V30 5 C 74.393400 57.257600 41.650600 0
M  V30 6 C 75.112300 56.427900 42.497800 0
M  V30 7 O 76.071900 56.866600 43.324700 0
M  V30 8 C 74.847200 55.079600 42.521300 0
M  V30 9 H 72.639600 54.939500 39.913500 0
M  V30 10 H 73.548900 58.382100 39.340200 0
M  V30 11 H 72.468500 57.065900 38.874700 0
M  V30 12 H 72.070800 58.057900 40.303000 0
M  V30 13 H 74.471900 58.325500 41.724700 0
M  V30 14 H 75.415400 54.536300 43.252200 0
M  V30 15 H 76.143100 57.808800 43.429300 0
M  V30 16 R 73.515700 53.057200 41.801600 0
M  V30 END ATOM
M  V30 BEGIN BOND
M  V30 1 2 2 1
M  V30 2 1 3 2
M  V30 3 1 4 3
M  V30 4 2 5 3
M  V30 5 1 6 5
M  V30 6 1 7 6
M  V30 7 1 8 1
M  V30 8 2 8 6
M  V30 9 1 9 2
M  V30 10 1 10 4
M  V30 11 1 11 4
M  V30 12 1 12 4
M  V30 13 1 13 5
M  V30 14 1 14 8
M  V30 15 1 15 7
M  V30 16 1 16 1
M  V30 END BOND
M  V30 END CTAB
M  END
$$$$
R-group 122 (3968-1)
     RDKit          3D

  0  0  0  0  0  0  0  0  0  0999 V3000
M  V30 BEGIN CTAB
M  V30 COUNTS 15 15 0 0 1
M  V30 BEGIN ATOM
M  V30 1 C 72.424200 53.954100 41.899800 0
M  V30 2 N 73.275700 54.921200 42.523700 0
M  V30 3 C 74.183300 55.724600 41.895800 0
M  V30 4 C 75.316100 56.131800 42.615100 0
M  V30 5 N 76.282000 56.858300 42.031100 0
M  V30 6 C 76.073100 57.250000 40.790500 0
M  V30 7 C 74.904000 56.856300 40.114400 0
M  V30 8 N 73.949700 56.080300 40.628700 0
M  V30 9 H 71.858000 54.396900 41.082500 0
M  V30 10 H 71.673300 53.684600 42.646200 0
M  V30 11 H 73.272400 54.871500 43.546500 0
M  V30 12 H 75.484300 55.823800 43.637200 0
M  V30 13 H 76.839400 57.843200 40.315100 0
M  V30 14 H 74.818200 57.134900 39.076000 0
M  V30 15 R 73.190300 52.695100 41.498100 0
M  V30 END ATOM
M  V30 BEGIN BOND
M  V30 1 1 2 1
M  V30 2 1 3 2
M  V30 3 2 4 3
M  V30 4 1 5 4
M  V30 5 2 6 5
M  V30 6 1 7 6
M  V30 7 1 8 3
M  V30 8 2 8 7
M  V30 9 1 9 1
M  V30 10 1 10 1
M  V30 11 1 11 2
M  V30 12 1 12 4
M  V30 13 1 13 6
M  V30 14 1 14 7
M  V30 15 1 15 1
M  V30 END BOND
M  V30 END CTAB
M  END
$$$$
R-group 123 (89-1)
     RDKit          3D

  0  0  0  0  0  0  0  0  0  0999 V3000
M  V30 BEGIN CTAB
M  V30 COUNTS 11 11 0 0 1
M  V30 BEGIN ATOM
M  V30 1 C 73.672600 54.714900 41.468400 0
M  V30 2 C 73.272400 55.333200 40.252900 0
M  V30 3 C 73.282400 56.730300 40.175500 0
M  V30 4 C 73.672700 57.428000 41.325200 0
M  V30 5 C 74.120200 56.748400 42.457300 0
M  V30 6 N 74.124500 55.413800 42.527100 0
M  V30 7 H 72.915900 54.790200 39.392800 0
M  V30 8 H 72.972600 57.247600 39.275400 0
M  V30 9 H 73.670500 58.495500 41.328300 0
M  V30 10 H 74.474300 57.289600 43.321800 0
M  V30 11 R 73.523900 53.215400 41.709400 0
M  V30 END ATOM
M  V30 BEGIN BOND
M  V30 1 2 2 1
M  V30 2 1 3 2
M  V30 3 2 4 3
M  V30 4 1 5 4
M  V30 5 1 6 1
M  V30 6 2 6 5
M  V30 7 1 7 2
M  V30 8 1 8 3
M  V30 9 1 9 4
M  V30 10 1 10 5
M  V30 11 1 11 1
M  V30 END BOND
M  V30 END CTAB
M  END
$$$$
R-group 124 (1911-1)
     RDKit          3D

  0  0  0  0  0  0  0  0  0  0999 V3000
M  V30 BEGIN CTAB
M  V30 COUNTS 13 13 0 0 1
M  V30 BEGIN ATOM
M  V30 1 C 73.669000 54.515900 41.243300 0
M  V30 2 C 73.603700 55.015100 39.912500 0
M  V30 3 C 73.670700 56.391100 39.698500 0
M  V30 4 N 73.672000 57.257900 40.709100 0
M  V30 5 C 73.672200 56.781100 41.954700 0
M  V30 6 N 73.279100 57.658000 42.924800 0
M  V30 7 C 73.737900 55.435600 42.291100 0
M  V30 8 H 73.462000 54.406800 39.036800 0
M  V30 9 H 73.634200 56.807600 38.702900 0
M  V30 10 H 73.193700 57.374400 43.888500 0
M  V30 11 H 73.121300 58.628000 42.700100 0
M  V30 12 H 73.672400 55.126500 43.324700 0
M  V30 13 R 73.510800 53.054800 41.593000 0
M  V30 END ATOM
M  V30 BEGIN BOND
M  V30 1 2 2 1
M  V30 2 1 3 2
M  V30 3 2 4 3
M  V30 4 1 5 4
M  V30 5 1 6 5
M  V30 6 1 7 1
M  V30 7 2 7 5
M  V30 8 1 8 2
M  V30 9 1 9 3
M  V30 10 1 10 6
M  V30 11 1 11 6
M  V30 12 1 12 7
M  V30 13 1 13 1
M  V30 END BOND
M  V30 END CTAB
M  END
$$$$
R-group 125 (5830-1)
     RDKit          3D

  0  0  0  0  0  0  0  0  0  0999 V3000
M  V30 BEGIN CTAB
M  V30 COUNTS 12 12 0 0 1
M  V30 BEGIN ATOM
M  V30 1 C 72.769400 54.243800 41.936500 0
M  V30 2 C 73.865700 55.252600 41.818800 0
M  V30 3 C 74.660300 55.630800 42.924900 0
M  V30 4 C 75.670600 56.483100 42.609800 0
M  V30 5 S 75.672200 56.857100 40.924800 0
M  V30 6 C 74.257000 55.886500 40.666600 0
M  V30 7 H 71.947800 54.457800 41.259800 0
M  V30 8 H 72.320600 54.281700 42.925000 0
M  V30 9 H 74.465300 55.258200 43.918100 0
M  V30 10 H 76.411100 56.925200 43.263400 0
M  V30 11 H 73.831600 55.817200 39.676600 0
M  V30 12 R 73.275900 52.827400 41.643000 0
M  V30 END ATOM
M  V30 BEGIN BOND
M  V30 1 1 2 1
M  V30 2 1 3 2
M  V30 3 2 4 3
M  V30 4 1 5 4
M  V30 5 2 6 2
M  V30 6 1 6 5
M  V30 7 1 7 1
M  V30 8 1 8 1
M  V30 9 1 9 3
M  V30 10 1 10 4
M  V30 11 1 11 6
M  V30 12 1 12 1
M  V30 END BOND
M  V30 END CTAB
M  END
$$$$
R-group 126 (127-1)
     RDKit          3D

  0  0  0  0  0  0  0  0  0  0999 V3000
M  V30 BEGIN CTAB
M  V30 COUNTS 14 13 0 0 1
M  V30 BEGIN ATOM
M  V30 1 C 73.383400 55.106800 42.119800 0
M  V30 2 C 74.589100 55.980200 42.533300 0
M  V30 3 C 74.069100 57.363900 42.952600 0
M  V30 4 C 75.643700 56.152600 41.429600 0
M  V30 5 H 72.656800 55.084300 42.924700 0
M  V30 6 H 72.872600 55.635000 41.316000 0
M  V30 7 H 75.073900 55.528400 43.398600 0
M  V30 8 H 73.639900 57.901300 42.106000 0
M  V30 9 H 74.872200 57.979100 43.355700 0
M  V30 10 H 73.295700 57.287600 43.720000 0
M  V30 11 H 75.216300 56.615500 40.540900 0
M  V30 12 H 76.465600 56.782300 41.767400 0
M  V30 13 H 76.071200 55.198300 41.131900 0
M  V30 14 R 73.606300 53.652000 41.644600 0
M  V30 END ATOM
M  V30 BEGIN BOND
M  V30 1 1 2 1
M  V30 2 1 3 2
M  V30 3 1 4 2
M  V30 4 1 5 1
M  V30 5 1 6 1
M  V30 6 1 7 2
M  V30 7 1 8 3
M  V30 8 1 9 3
M  V30 9 1 10 3
M  V30 10 1 11 4
M  V30 11 1 12 4
M  V30 12 1 13 4
M  V30 13 1 14 1
M  V30 END BOND
M  V30 END CTAB
M  END
$$$$
R-group 127 (5667-4)
     RDKit          3D

  0  0  0  0  0  0  0  0  0  0999 V3000
M  V30 BEGIN CTAB
M  V30 COUNTS 16 16 0 0 1
M  V30 BEGIN ATOM
M  V30 1 C 73.980800 55.034500 42.075500 0 CFG=1
M  V30 2 C 75.445200 55.513700 41.950500 0
M  V30 3 C 75.519900 56.536000 40.800200 0
M  V30 4 C 74.284200 56.212600 39.970500 0 CFG=2
M  V30 5 O 73.669800 57.260300 39.325700 0
M  V30 6 C 73.270500 55.872800 41.022700 0
M  V30 7 H 73.617900 55.341600 43.058300 0
M  V30 8 H 75.817900 55.938500 42.881600 0
M  V30 9 H 76.066600 54.670800 41.715800 0
M  V30 10 H 76.446500 56.475700 40.231300 0
M  V30 11 H 75.450500 57.543200 41.216300 0
M  V30 12 H 74.437300 55.419000 39.247700 0
M  V30 13 H 72.404000 55.440100 40.524800 0
M  V30 14 H 72.926600 56.789400 41.510100 0
M  V30 15 H 73.784300 57.254200 38.375900 0
M  V30 16 R 73.699200 53.504700 41.956300 0
M  V30 END ATOM
M  V30 BEGIN BOND
M  V30 1 1 2 1
M  V30 2 1 3 2
M  V30 3 1 4 3
M  V30 4 1 5 4
M  V30 5 1 6 1
M  V30 6 1 6 4
M  V30 7 1 1 7 CFG=1
M  V30 8 1 8 2
M  V30 9 1 9 2
M  V30 10 1 10 3
M  V30 11 1 11 3
M  V30 12 1 4 12 CFG=3
M  V30 13 1 13 6
M  V30 14 1 14 6
M  V30 15 1 15 5
M  V30 16 1 16 1
M  V30 END BOND
M  V30 END CTAB
M  END
$$$$
R-group 128 (6751-1)
     RDKit          3D

  0  0  0  0  0  0  0  0  0  0999 V3000
M  V30 BEGIN CTAB
M  V30 COUNTS 11 11 0 0 1
M  V30 BEGIN ATOM
M  V30 1 C 73.877100 55.058800 41.662900 0
M  V30 2 C 74.427300 55.787800 42.750600 0
M  V30 3 N 74.471900 57.076100 42.524300 0
M  V30 4 O 74.007200 57.252800 41.226100 0
M  V30 5 C 73.676100 56.044000 40.716900 0
M  V30 6 C 73.112900 56.108200 39.331900 0
M  V30 7 H 74.736000 55.437500 43.723500 0
M  V30 8 H 73.649200 55.447600 38.652400 0
M  V30 9 H 72.056400 55.839300 39.326800 0
M  V30 10 H 73.190400 57.118300 38.925700 0
M  V30 11 R 73.547100 53.573900 41.664600 0
M  V30 END ATOM
M  V30 BEGIN BOND
M  V30 1 1 2 1
M  V30 2 2 3 2
M  V30 3 1 4 3
M  V30 4 2 5 1
M  V30 5 1 5 4
M  V30 6 1 6 5
M  V30 7 1 7 2
M  V30 8 1 8 6
M  V30 9 1 9 6
M  V30 10 1 10 6
M  V30 11 1 11 1
M  V30 END BOND
M  V30 END CTAB
M  END
$$$$
R-group 129 (2445-4)
     RDKit          3D

  0  0  0  0  0  0  0  0  0  0999 V3000
M  V30 BEGIN CTAB
M  V30 COUNTS 19 19 0 0 1
M  V30 BEGIN ATOM
M  V30 1 C 73.938000 54.914300 41.552000 0 CFG=1
M  V30 2 C 73.363800 55.719500 40.337500 0
M  V30 3 C 73.849500 57.169800 40.329600 0
M  V30 4 C 73.541400 57.802700 41.681200 0
M  V30 5 C 74.171300 57.034000 42.852700 0 CFG=2
M  V30 6 O 75.586100 56.856900 42.864800 0
M  V30 7 C 73.610600 55.634500 42.880400 0
M  V30 8 H 75.020300 54.915800 41.412600 0
M  V30 9 H 73.668900 55.294600 39.386300 0
M  V30 10 H 72.282600 55.680700 40.328600 0
M  V30 11 H 73.359700 57.721400 39.524700 0
M  V30 12 H 74.923600 57.206000 40.134000 0
M  V30 13 H 72.470400 57.777600 41.805700 0
M  V30 14 H 73.747400 58.858500 41.724100 0
M  V30 15 H 73.868800 57.599400 43.724800 0
M  V30 16 H 72.535500 55.653900 43.067900 0
M  V30 17 H 74.072100 55.140500 43.730700 0
M  V30 18 H 75.839200 56.524600 43.713700 0
M  V30 19 R 73.539000 53.420200 41.634500 0
M  V30 END ATOM
M  V30 BEGIN BOND
M  V30 1 1 2 1
M  V30 2 1 3 2
M  V30 3 1 4 3
M  V30 4 1 5 4
M  V30 5 1 6 5
M  V30 6 1 7 1
M  V30 7 1 7 5
M  V30 8 1 1 8 CFG=3
M  V30 9 1 9 2
M  V30 10 1 10 2
M  V30 11 1 11 3
M  V30 12 1 12 3
M  V30 13 1 13 4
M  V30 14 1 14 4
M  V30 15 1 5 15 CFG=1
M  V30 16 1 16 7
M  V30 17 1 17 7
M  V30 18 1 18 6
M  V30 19 1 19 1
M  V30 END BOND
M  V30 END CTAB
M  END
$$$$
R-group 130 (16888-1)
     RDKit          3D

  0  0  0  0  0  0  0  0  0  0999 V3000
M  V30 BEGIN CTAB
M  V30 COUNTS 15 15 0 0 1
M  V30 BEGIN ATOM
M  V30 1 C 72.828800 54.258100 41.991500 0
M  V30 2 N 73.839700 55.309300 41.970400 0
M  V30 3 C 74.757500 55.553500 42.920000 0
M  V30 4 N 75.666500 56.457000 42.590300 0
M  V30 5 C 75.267000 56.858000 41.325300 0
M  V30 6 C 74.079100 56.257800 40.979100 0
M  V30 7 C 73.196500 56.517000 39.797600 0
M  V30 8 H 72.011500 54.458600 41.303000 0
M  V30 9 H 72.349000 54.200700 42.948300 0
M  V30 10 H 74.784300 55.037200 43.867500 0
M  V30 11 H 75.817900 57.627600 40.805200 0
M  V30 12 H 73.674600 57.206700 39.097800 0
M  V30 13 H 72.947700 55.613800 39.245900 0
M  V30 14 H 72.258700 56.967900 40.121700 0
M  V30 15 R 73.381600 52.913100 41.531700 0
M  V30 END ATOM
M  V30 BEGIN BOND
M  V30 1 1 2 1
M  V30 2 1 3 2
M  V30 3 2 4 3
M  V30 4 1 5 4
M  V30 5 1 6 2
M  V30 6 2 6 5
M  V30 7 1 7 6
M  V30 8 1 8 1
M  V30 9 1 9 1
M  V30 10 1 10 3
M  V30 11 1 11 5
M  V30 12 1 12 7
M  V30 13 1 13 7
M  V30 14 1 14 7
M  V30 15 1 15 1
M  V30 END BOND
M  V30 END CTAB
M  END
$$$$
R-group 131 (1313-2)
     RDKit          3D

  0  0  0  0  0  0  0  0  0  0999 V3000
M  V30 BEGIN CTAB
M  V30 COUNTS 16 15 0 0 1
M  V30 BEGIN ATOM
M  V30 1 C 73.772000 55.048700 41.480000 0
M  V30 2 O 74.049600 55.535400 40.385200 0
M  V30 3 N 73.672900 55.800600 42.573600 0
M  V30 4 C 74.193900 57.153300 42.695500 0
M  V30 5 C 75.725500 57.119800 42.866400 0 CFG=2
M  V30 6 C 76.505800 57.014300 41.552800 0
M  V30 7 O 76.071800 56.057900 43.724600 0
M  V30 8 H 73.903600 57.769900 41.846700 0
M  V30 9 H 73.732600 57.612200 43.569200 0
M  V30 10 H 76.058900 58.015100 43.361200 0
M  V30 11 H 76.140500 57.709200 40.799200 0
M  V30 12 H 77.551600 57.258200 41.722200 0
M  V30 13 H 76.467200 56.011900 41.128900 0
M  V30 14 H 73.298700 55.371400 43.414400 0
M  V30 15 H 75.280100 55.565100 43.895700 0
M  V30 16 R 73.509000 53.546800 41.673500 0
M  V30 END ATOM
M  V30 BEGIN BOND
M  V30 1 2 2 1
M  V30 2 1 3 1
M  V30 3 1 4 3
M  V30 4 1 5 4
M  V30 5 1 6 5
M  V30 6 1 7 5
M  V30 7 1 8 4
M  V30 8 1 9 4
M  V30 9 1 5 10 CFG=1
M  V30 10 1 11 6
M  V30 11 1 12 6
M  V30 12 1 13 6
M  V30 13 1 14 3
M  V30 14 1 15 7
M  V30 15 1 16 1
M  V30 END BOND
M  V30 END CTAB
M  END
$$$$
R-group 132 (3841-2)
     RDKit          3D

  0  0  0  0  0  0  0  0  0  0999 V3000
M  V30 BEGIN CTAB
M  V30 COUNTS 15 15 0 0 1
M  V30 BEGIN ATOM
M  V30 1 N 73.317700 54.393200 42.124600 0
M  V30 2 C 74.596100 54.997100 41.750500 0 CFG=1
M  V30 3 C 74.436100 56.081700 40.693500 0
M  V30 4 C 75.200700 57.260400 41.262900 0
M  V30 5 N 75.672000 56.857900 42.569600 0
M  V30 6 C 75.266600 55.661700 42.923700 0
M  V30 7 O 75.457100 55.135900 44.015400 0
M  V30 8 H 73.110500 54.580500 43.106000 0
M  V30 9 H 75.348300 54.305900 41.383400 0
M  V30 10 H 74.852500 55.785300 39.729700 0
M  V30 11 H 73.388500 56.342500 40.530900 0
M  V30 12 H 74.474700 58.054600 41.383600 0
M  V30 13 H 76.027300 57.588600 40.629100 0
M  V30 14 H 76.157400 57.486600 43.198100 0
M  V30 15 R 73.321700 52.958900 41.938400 0
M  V30 END ATOM
M  V30 BEGIN BOND
M  V30 1 1 2 1
M  V30 2 1 3 2
M  V30 3 1 4 3
M  V30 4 1 5 4
M  V30 5 1 6 2
M  V30 6 1 6 5
M  V30 7 2 7 6
M  V30 8 1 8 1
M  V30 9 1 2 9 CFG=3
M  V30 10 1 10 3
M  V30 11 1 11 3
M  V30 12 1 12 4
M  V30 13 1 13 4
M  V30 14 1 14 5
M  V30 15 1 15 1
M  V30 END BOND
M  V30 END CTAB
M  END
$$$$
R-group 133 (42059-1)
     RDKit          3D

  0  0  0  0  0  0  0  0  0  0999 V3000
M  V30 BEGIN CTAB
M  V30 COUNTS 17 18 0 0 1
M  V30 BEGIN ATOM
M  V30 1 C 74.078400 55.216500 41.917900 0 CFG=1
M  V30 2 C 75.568300 55.571300 41.759700 0
M  V30 3 C 75.531600 56.973400 41.172800 0
M  V30 4 C 74.037300 57.277100 41.255700 0 CFG=2
M  V30 5 C 73.566700 57.402200 42.714600 0
M  V30 6 C 73.503800 55.936600 43.139900 0
M  V30 7 O 73.543300 56.009800 40.877400 0
M  V30 8 H 76.072200 55.563700 42.723000 0
M  V30 9 H 76.072200 54.901500 41.078100 0
M  V30 10 H 76.162200 57.658000 41.734400 0
M  V30 11 H 75.865200 56.967400 40.134100 0
M  V30 12 H 73.672300 58.062100 40.597400 0
M  V30 13 H 74.254100 57.989300 43.322800 0
M  V30 14 H 72.582400 57.867500 42.769200 0
M  V30 15 H 72.464500 55.663800 43.322300 0
M  V30 16 H 74.072500 55.658100 44.030100 0
M  V30 17 R 73.691700 53.714500 41.844600 0
M  V30 END ATOM
M  V30 BEGIN BOND
M  V30 1 1 2 1
M  V30 2 1 3 2
M  V30 3 1 4 3
M  V30 4 1 5 4
M  V30 5 1 6 1
M  V30 6 1 6 5
M  V30 7 1 7 1
M  V30 8 1 7 4
M  V30 9 1 8 2
M  V30 10 1 9 2
M  V30 11 1 10 3
M  V30 12 1 11 3
M  V30 13 1 4 12 CFG=3
M  V30 14 1 13 5
M  V30 15 1 14 5
M  V30 16 1 15 6
M  V30 17 1 16 6
M  V30 18 1 1 17 CFG=3
M  V30 END BOND
M  V30 END CTAB
M  END
$$$$
R-group 134 (31-1)
     RDKit          3D

  0  0  0  0  0  0  0  0  0  0999 V3000
M  V30 BEGIN CTAB
M  V30 COUNTS 9 9 0 0 1
M  V30 BEGIN ATOM
M  V30 1 C 73.848600 54.848400 41.738600 0
M  V30 2 C 74.171500 55.644800 42.805000 0
M  V30 3 C 74.072400 57.027500 42.524200 0
M  V30 4 C 73.712900 57.258000 41.229100 0
M  V30 5 S 73.672100 55.818400 40.290400 0
M  V30 6 H 74.368600 55.291600 43.805900 0
M  V30 7 H 74.225700 57.785100 43.278800 0
M  V30 8 H 73.528500 58.206700 40.751800 0
M  V30 9 R 73.593500 53.368800 41.748600 0
M  V30 END ATOM
M  V30 BEGIN BOND
M  V30 1 2 2 1
M  V30 2 1 3 2
M  V30 3 2 4 3
M  V30 4 1 5 1
M  V30 5 1 5 4
M  V30 6 1 6 2
M  V30 7 1 7 3
M  V30 8 1 8 4
M  V30 9 1 9 1
M  V30 END BOND
M  V30 END CTAB
M  END
$$$$
R-group 135 (44986-2)
     RDKit          3D

  0  0  0  0  0  0  0  0  0  0999 V3000
M  V30 BEGIN CTAB
M  V30 COUNTS 16 16 0 0 1
M  V30 BEGIN ATOM
M  V30 1 C 74.053100 55.245700 41.250000 0 CFG=1
M  V30 2 C 73.344200 55.957300 40.030100 0
M  V30 3 F 74.063200 55.802500 38.926000 0
M  V30 4 F 72.109700 55.563400 39.724600 0
M  V30 5 F 73.273500 57.264800 40.252300 0
M  V30 6 C 75.570700 55.508300 41.131300 0
M  V30 7 C 75.801000 56.850100 41.775500 0
M  V30 8 C 74.818500 56.739600 42.924700 0
M  V30 9 O 73.715100 55.984400 42.431800 0
M  V30 10 H 76.066700 54.793100 41.752000 0
M  V30 11 H 76.000900 55.432500 40.128700 0
M  V30 12 H 76.836400 57.003800 42.097600 0
M  V30 13 H 75.530600 57.656400 41.098700 0
M  V30 14 H 75.281900 56.161800 43.725000 0
M  V30 15 H 74.510900 57.710100 43.319500 0
M  V30 16 R 73.668700 53.722900 41.535800 0
M  V30 END ATOM
M  V30 BEGIN BOND
M  V30 1 1 2 1
M  V30 2 1 3 2
M  V30 3 1 4 2
M  V30 4 1 5 2
M  V30 5 1 6 1
M  V30 6 1 7 6
M  V30 7 1 8 7
M  V30 8 1 9 1
M  V30 9 1 9 8
M  V30 10 1 10 6
M  V30 11 1 11 6
M  V30 12 1 12 7
M  V30 13 1 13 7
M  V30 14 1 14 8
M  V30 15 1 15 8
M  V30 16 1 1 16 CFG=1
M  V30 END BOND
M  V30 END CTAB
M  END
$$$$
R-group 136 (31145-1)
     RDKit          3D

  0  0  0  0  0  0  0  0  0  0999 V3000
M  V30 BEGIN CTAB
M  V30 COUNTS 16 16 0 0 1
M  V30 BEGIN ATOM
M  V30 1 C 74.004400 55.231400 41.571200 0 CFG=2
M  V30 2 C 73.272300 55.943600 40.393400 0
M  V30 3 C 73.774000 55.993300 42.878200 0
M  V30 4 C 74.678700 57.221300 42.754000 0
M  V30 5 O 75.680900 56.858000 41.812300 0
M  V30 6 C 75.504400 55.512500 41.419700 0
M  V30 7 H 73.343700 57.028300 40.444500 0
M  V30 8 H 73.703500 55.662400 39.431900 0
M  V30 9 H 72.217200 55.695500 40.335700 0
M  V30 10 H 72.733600 56.255100 43.060500 0
M  V30 11 H 74.108200 55.404900 43.726700 0
M  V30 12 H 74.100400 58.060300 42.366200 0
M  V30 13 H 75.134300 57.532400 43.695500 0
M  V30 14 H 76.067200 54.923300 42.123000 0
M  V30 15 H 75.909700 55.343900 40.424600 0
M  V30 16 R 73.620600 53.700100 41.696000 0
M  V30 END ATOM
M  V30 BEGIN BOND
M  V30 1 1 2 1
M  V30 2 1 3 1
M  V30 3 1 4 3
M  V30 4 1 5 4
M  V30 5 1 6 1
M  V30 6 1 6 5
M  V30 7 1 7 2
M  V30 8 1 8 2
M  V30 9 1 9 2
M  V30 10 1 10 3
M  V30 11 1 11 3
M  V30 12 1 12 4
M  V30 13 1 13 4
M  V30 14 1 14 6
M  V30 15 1 15 6
M  V30 16 1 1 16 CFG=1
M  V30 END BOND
M  V30 END CTAB
M  END
$$$$
R-group 137 (20723-3)
     RDKit          3D

  0  0  0  0  0  0  0  0  0  0999 V3000
M  V30 BEGIN CTAB
M  V30 COUNTS 16 17 0 0 1
M  V30 BEGIN ATOM
M  V30 1 N 73.807000 55.119600 41.735000 0
M  V30 2 C 73.378100 55.742300 42.977100 0
M  V30 3 C 73.445500 57.275900 42.917300 0
M  V30 4 O 74.073600 57.657900 41.726600 0
M  V30 5 C 75.355300 57.064700 41.647800 0 CFG=2
M  V30 6 C 75.664600 56.445700 40.335000 0
M  V30 7 C 75.201700 55.567200 41.503700 0 CFG=2
M  V30 8 H 72.377000 55.429900 43.304800 0
M  V30 9 H 74.077300 55.404400 43.724900 0
M  V30 10 H 72.472800 57.753400 42.964900 0
M  V30 11 H 74.037500 57.668400 43.723800 0
M  V30 12 H 76.148700 57.461600 42.272300 0
M  V30 13 H 74.946200 56.635900 39.527000 0
M  V30 14 H 76.751700 56.541500 40.126400 0
M  V30 15 H 75.942500 54.971700 42.034300 0
M  V30 16 R 73.559700 53.678400 41.709300 0
M  V30 END ATOM
M  V30 BEGIN BOND
M  V30 1 1 2 1
M  V30 2 1 3 2
M  V30 3 1 4 3
M  V30 4 1 5 4
M  V30 5 1 6 5
M  V30 6 1 7 1
M  V30 7 1 7 5
M  V30 8 1 7 6
M  V30 9 1 8 2
M  V30 10 1 9 2
M  V30 11 1 10 3
M  V30 12 1 11 3
M  V30 13 1 5 12 CFG=1
M  V30 14 1 13 6
M  V30 15 1 14 6
M  V30 16 1 7 15 CFG=1
M  V30 17 1 16 1
M  V30 END BOND
M  V30 END CTAB
M  END
$$$$
R-group 138 (27013-1)
     RDKit          3D

  0  0  0  0  0  0  0  0  0  0999 V3000
M  V30 BEGIN CTAB
M  V30 COUNTS 17 17 0 0 1
M  V30 BEGIN ATOM
M  V30 1 C 73.633500 54.741700 41.618800 0
M  V30 2 C 73.814400 55.410300 40.452000 0
M  V30 3 C 74.041300 56.891500 40.365700 0
M  V30 4 C 74.466500 57.394700 41.736500 0 CFG=2
M  V30 5 O 75.741000 56.857400 42.068900 0
M  V30 6 C 73.441400 57.019800 42.779800 0
M  V30 7 C 73.374600 55.504500 42.925000 0
M  V30 8 H 73.829300 54.934500 39.488100 0
M  V30 9 H 74.809400 57.106300 39.623000 0
M  V30 10 H 73.126800 57.383600 40.029900 0
M  V30 11 H 74.471700 58.458000 41.724900 0
M  V30 12 H 72.474200 57.424400 42.479300 0
M  V30 13 H 73.676100 57.498600 43.724700 0
M  V30 14 H 72.370200 55.257800 43.284600 0
M  V30 15 H 74.092000 55.213500 43.683700 0
M  V30 16 H 75.737900 55.928000 41.866700 0
M  V30 17 R 73.471300 53.230200 41.719300 0
M  V30 END ATOM
M  V30 BEGIN BOND
M  V30 1 2 2 1
M  V30 2 1 3 2
M  V30 3 1 4 3
M  V30 4 1 5 4
M  V30 5 1 6 4
M  V30 6 1 7 1
M  V30 7 1 7 6
M  V30 8 1 8 2
M  V30 9 1 9 3
M  V30 10 1 10 3
M  V30 11 1 4 11 CFG=3
M  V30 12 1 12 6
M  V30 13 1 13 6
M  V30 14 1 14 7
M  V30 15 1 15 7
M  V30 16 1 16 5
M  V30 17 1 17 1
M  V30 END BOND
M  V30 END CTAB
M  END
$$$$
R-group 139 (32670-1)
     RDKit          3D

  0  0  0  0  0  0  0  0  0  0999 V3000
M  V30 BEGIN CTAB
M  V30 COUNTS 12 12 0 0 1
M  V30 BEGIN ATOM
M  V30 1 N 72.953400 54.243600 42.124200 0
M  V30 2 C 73.841700 55.327200 42.080600 0
M  V30 3 N 73.674900 56.420800 42.872800 0
M  V30 4 N 74.575700 57.257500 42.486400 0
M  V30 5 N 75.325700 56.609900 41.559300 0
M  V30 6 C 76.471500 57.184500 40.878800 0
M  V30 7 N 74.883300 55.389000 41.265700 0
M  V30 8 H 76.866600 56.497000 40.132100 0
M  V30 9 H 76.139500 58.058900 40.337200 0
M  V30 10 H 77.251500 57.440300 41.594000 0
M  V30 11 H 72.388700 54.247700 42.966800 0
M  V30 12 R 73.380200 52.967400 41.628300 0
M  V30 END ATOM
M  V30 BEGIN BOND
M  V30 1 1 2 1
M  V30 2 1 3 2
M  V30 3 2 4 3
M  V30 4 1 5 4
M  V30 5 1 6 5
M  V30 6 2 7 2
M  V30 7 1 7 5
M  V30 8 1 8 6
M  V30 9 1 9 6
M  V30 10 1 10 6
M  V30 11 1 11 1
M  V30 12 1 12 1
M  V30 END BOND
M  V30 END CTAB
M  END
$$$$
R-group 140 (6752-1)
     RDKit          3D

  0  0  0  0  0  0  0  0  0  0999 V3000
M  V30 BEGIN CTAB
M  V30 COUNTS 8 8 0 0 1
M  V30 BEGIN ATOM
M  V30 1 C 73.739900 54.810100 41.518300 0
M  V30 2 C 73.593100 55.563100 40.305900 0
M  V30 3 N 73.746300 56.859200 40.383700 0
M  V30 4 S 74.071700 57.255600 41.975700 0
M  V30 5 C 74.073000 55.643400 42.540300 0
M  V30 6 H 73.327700 55.170300 39.337600 0
M  V30 7 H 74.238600 55.431000 43.586500 0
M  V30 8 R 73.515700 53.334000 41.686000 0
M  V30 END ATOM
M  V30 BEGIN BOND
M  V30 1 1 2 1
M  V30 2 2 3 2
M  V30 3 1 4 3
M  V30 4 2 5 1
M  V30 5 1 5 4
M  V30 6 1 6 2
M  V30 7 1 7 5
M  V30 8 1 8 1
M  V30 END BOND
M  V30 END CTAB
M  END
$$$$
R-group 141 (7086-2)
     RDKit          3D

  0  0  0  0  0  0  0  0  0  0999 V3000
M  V30 BEGIN CTAB
M  V30 COUNTS 15 15 0 0 1
M  V30 BEGIN ATOM
M  V30 1 C 73.593600 54.756800 41.296600 0 CFG=1
M  V30 2 C 73.685800 55.798800 42.402800 0
M  V30 3 C 75.217600 55.727600 42.281000 0 CFG=2
M  V30 4 C 75.965800 57.014800 42.368400 0
M  V30 5 C 74.997500 55.197700 40.862000 0
M  V30 6 H 72.869700 55.108100 40.558800 0
M  V30 7 H 73.272600 56.765900 42.102000 0
M  V30 8 H 73.258800 55.450100 43.325400 0
M  V30 9 H 75.660900 54.971200 42.938500 0
M  V30 10 H 75.404800 57.657500 41.707900 0
M  V30 11 H 76.011200 57.413000 43.401300 0
M  V30 12 H 76.950700 56.950800 41.925600 0
M  V30 13 H 75.681000 54.395600 40.571900 0
M  V30 14 H 74.971800 55.991400 40.109600 0
M  V30 15 R 73.339400 53.293600 41.660500 0
M  V30 END ATOM
M  V30 BEGIN BOND
M  V30 1 1 2 1
M  V30 2 1 3 2
M  V30 3 1 4 3
M  V30 4 1 5 1
M  V30 5 1 5 3
M  V30 6 1 1 6 CFG=3
M  V30 7 1 7 2
M  V30 8 1 8 2
M  V30 9 1 3 9 CFG=1
M  V30 10 1 10 4
M  V30 11 1 11 4
M  V30 12 1 12 4
M  V30 13 1 13 5
M  V30 14 1 14 5
M  V30 15 1 15 1
M  V30 END BOND
M  V30 END CTAB
M  END
$$$$
R-group 142 (14292-1)
     RDKit          3D

  0  0  0  0  0  0  0  0  0  0999 V3000
M  V30 BEGIN CTAB
M  V30 COUNTS 11 11 0 0 1
M  V30 BEGIN ATOM
M  V30 1 C 74.115900 55.084600 41.864900 0
M  V30 2 N 74.872200 55.619900 42.896900 0
M  V30 3 C 75.142300 56.857800 42.524600 0
M  V30 4 O 74.575300 57.209100 41.348300 0
M  V30 5 C 73.934000 56.083800 40.927300 0
M  V30 6 C 73.213200 56.204100 39.622600 0
M  V30 7 H 75.723700 57.555000 43.109900 0
M  V30 8 H 73.634200 55.533700 38.874600 0
M  V30 9 H 72.153700 55.974700 39.736700 0
M  V30 10 H 73.288600 57.218700 39.228200 0
M  V30 11 R 73.673700 53.635700 41.912200 0
M  V30 END ATOM
M  V30 BEGIN BOND
M  V30 1 1 2 1
M  V30 2 2 3 2
M  V30 3 1 4 3
M  V30 4 2 5 1
M  V30 5 1 5 4
M  V30 6 1 6 5
M  V30 7 1 7 3
M  V30 8 1 8 6
M  V30 9 1 9 6
M  V30 10 1 10 6
M  V30 11 1 11 1
M  V30 END BOND
M  V30 END CTAB
M  END
$$$$
R-group 143 (6756-1)
     RDKit          3D

  0  0  0  0  0  0  0  0  0  0999 V3000
M  V30 BEGIN CTAB
M  V30 COUNTS 12 12 0 0 1
M  V30 BEGIN ATOM
M  V30 1 C 73.898400 55.061700 41.733700 0
M  V30 2 C 74.380300 55.804300 42.847000 0
M  V30 3 C 74.288200 57.118200 42.524600 0
M  V30 4 O 73.884200 57.257900 41.248900 0
M  V30 5 C 73.672800 56.013100 40.755800 0
M  V30 6 C 73.155000 56.035600 39.351100 0
M  V30 7 H 74.669500 55.434100 43.816900 0
M  V30 8 H 74.471600 58.042600 43.055400 0
M  V30 9 H 73.719100 55.375300 38.695900 0
M  V30 10 H 72.104600 55.746500 39.322100 0
M  V30 11 H 73.227700 57.038200 38.925100 0
M  V30 12 R 73.637000 53.562000 41.746500 0
M  V30 END ATOM
M  V30 BEGIN BOND
M  V30 1 1 2 1
M  V30 2 2 3 2
M  V30 3 1 4 3
M  V30 4 2 5 1
M  V30 5 1 5 4
M  V30 6 1 6 5
M  V30 7 1 7 2
M  V30 8 1 8 3
M  V30 9 1 9 6
M  V30 10 1 10 6
M  V30 11 1 11 6
M  V30 12 1 12 1
M  V30 END BOND
M  V30 END CTAB
M  END
$$$$
R-group 144 (31480-4)
     RDKit          3D

  0  0  0  0  0  0  0  0  0  0999 V3000
M  V30 BEGIN CTAB
M  V30 COUNTS 13 13 0 0 1
M  V30 BEGIN ATOM
M  V30 1 C 74.725600 55.346100 41.930500 0 CFG=2
M  V30 2 C 74.699400 56.107500 43.264000 0
M  V30 3 C 73.796500 57.159600 42.625100 0
M  V30 4 C 74.286000 56.676400 41.261400 0 CFG=2
M  V30 5 O 73.372600 56.684500 40.183300 0
M  V30 6 H 75.771100 55.199000 41.660700 0
M  V30 7 H 74.218500 55.579500 44.084700 0
M  V30 8 H 75.676600 56.499800 43.550000 0
M  V30 9 H 74.062800 58.186100 42.872100 0
M  V30 10 H 72.743000 56.962300 42.806900 0
M  V30 11 H 75.170300 57.245300 40.965000 0
M  V30 12 H 73.675100 57.330900 39.559500 0
M  V30 13 R 73.970400 53.991300 41.837600 0
M  V30 END ATOM
M  V30 BEGIN BOND
M  V30 1 1 2 1
M  V30 2 1 3 2
M  V30 3 1 4 1
M  V30 4 1 4 3
M  V30 5 1 5 4
M  V30 6 1 1 6 CFG=3
M  V30 7 1 7 2
M  V30 8 1 8 2
M  V30 9 1 9 3
M  V30 10 1 10 3
M  V30 11 1 4 11 CFG=3
M  V30 12 1 12 5
M  V30 13 1 13 1
M  V30 END BOND
M  V30 END CTAB
M  END
$$$$
R-group 145 (31005-4)
     RDKit          3D

  0  0  0  0  0  0  0  0  0  0999 V3000
M  V30 BEGIN CTAB
M  V30 COUNTS 21 21 0 0 1
M  V30 BEGIN ATOM
M  V30 1 C 73.398700 54.950200 41.588400 0 CFG=1
M  V30 2 C 73.313600 55.736600 42.896400 0
M  V30 3 C 73.661600 57.183200 42.549300 0
M  V30 4 C 74.145500 57.172500 41.094200 0 CFG=2
M  V30 5 C 73.140400 57.840500 40.143900 0
M  V30 6 C 74.400700 55.715100 40.721300 0 CFG=1
M  V30 7 C 75.859700 55.361700 40.974600 0
M  V30 8 H 72.473400 55.136600 41.051700 0
M  V30 9 H 72.310400 55.659500 43.305200 0
M  V30 10 H 74.035300 55.373600 43.627500 0
M  V30 11 H 72.802300 57.839800 42.689200 0
M  V30 12 H 74.448400 57.554400 43.209300 0
M  V30 13 H 75.109400 57.657700 41.037900 0
M  V30 14 H 72.213100 57.269000 40.091200 0
M  V30 15 H 72.875700 58.849400 40.468200 0
M  V30 16 H 73.551400 57.908500 39.137600 0
M  V30 17 H 74.191500 55.574800 39.661200 0
M  V30 18 H 76.071300 55.324200 42.041800 0
M  V30 19 H 76.072100 54.401200 40.525700 0
M  V30 20 H 76.544500 56.074700 40.516300 0
M  V30 21 R 73.414800 53.404600 41.701900 0
M  V30 END ATOM
M  V30 BEGIN BOND
M  V30 1 1 2 1
M  V30 2 1 3 2
M  V30 3 1 4 3
M  V30 4 1 5 4
M  V30 5 1 6 1
M  V30 6 1 6 4
M  V30 7 1 7 6
M  V30 8 1 1 8 CFG=3
M  V30 9 1 9 2
M  V30 10 1 10 2
M  V30 11 1 11 3
M  V30 12 1 12 3
M  V30 13 1 4 13 CFG=1
M  V30 14 1 14 5
M  V30 15 1 15 5
M  V30 16 1 16 5
M  V30 17 1 6 17 CFG=3
M  V30 18 1 18 7
M  V30 19 1 19 7
M  V30 20 1 20 7
M  V30 21 1 21 1
M  V30 END BOND
M  V30 END CTAB
M  END
$$$$
R-group 146 (4558-2)
     RDKit          3D

  0  0  0  0  0  0  0  0  0  0999 V3000
M  V30 BEGIN CTAB
M  V30 COUNTS 13 12 0 0 1
M  V30 BEGIN ATOM
M  V30 1 N 73.692300 54.924600 42.061100 0
M  V30 2 C 75.067400 55.319600 41.798400 0
M  V30 3 C 75.099500 56.817600 41.606100 0 CFG=2
M  V30 4 C 76.460400 57.349200 41.108500 0
M  V30 5 F 74.782400 57.250300 42.820600 0
M  V30 6 H 73.446000 55.200400 43.005900 0
M  V30 7 H 75.671500 55.059400 42.665300 0
M  V30 8 H 75.507200 54.832900 40.933100 0
M  V30 9 H 74.309500 57.139300 40.924000 0
M  V30 10 H 76.704600 56.931600 40.131200 0
M  V30 11 H 76.472600 58.433900 40.992500 0
M  V30 12 H 77.262100 57.093100 41.795500 0
M  V30 13 R 73.456900 53.500400 41.912200 0
M  V30 END ATOM
M  V30 BEGIN BOND
M  V30 1 1 2 1
M  V30 2 1 3 2
M  V30 3 1 4 3
M  V30 4 1 5 3
M  V30 5 1 6 1
M  V30 6 1 7 2
M  V30 7 1 8 2
M  V30 8 1 3 9 CFG=3
M  V30 9 1 10 4
M  V30 10 1 11 4
M  V30 11 1 12 4
M  V30 12 1 13 1
M  V30 END BOND
M  V30 END CTAB
M  END
$$$$
R-group 147 (39933-2)
     RDKit          3D

  0  0  0  0  0  0  0  0  0  0999 V3000
M  V30 BEGIN CTAB
M  V30 COUNTS 20 20 0 0 1
M  V30 BEGIN ATOM
M  V30 1 O 73.409100 54.845200 42.139700 0
M  V30 2 C 74.330600 55.744400 41.532700 0 CFG=1
M  V30 3 C 73.460700 56.827700 40.855200 0
M  V30 4 C 73.168900 57.890100 41.939500 0
M  V30 5 C 73.960700 57.435500 43.170300 0
M  V30 6 C 75.065800 56.514800 42.623700 0 CFG=2
M  V30 7 C 76.259900 57.258800 42.021300 0
M  V30 8 O 75.664600 55.658100 43.576000 0
M  V30 9 H 75.035400 55.257700 40.858300 0
M  V30 10 H 74.013200 57.284600 40.033300 0
M  V30 11 H 72.546600 56.415500 40.426100 0
M  V30 12 H 73.562200 58.856800 41.652200 0
M  V30 13 H 72.098400 58.058500 42.124800 0
M  V30 14 H 73.271700 56.885600 43.816600 0
M  V30 15 H 74.373000 58.274300 43.724300 0
M  V30 16 H 75.964900 58.036900 41.321900 0
M  V30 17 H 76.872200 57.730800 42.789600 0
M  V30 18 H 76.871900 56.557500 41.465200 0
M  V30 19 H 74.968900 55.155300 43.973200 0
M  V30 20 R 73.455900 53.483200 41.742900 0
M  V30 END ATOM
M  V30 BEGIN BOND
M  V30 1 1 2 1
M  V30 2 1 3 2
M  V30 3 1 4 3
M  V30 4 1 5 4
M  V30 5 1 6 2
M  V30 6 1 6 5
M  V30 7 1 7 6
M  V30 8 1 6 8 CFG=1
M  V30 9 1 2 9 CFG=3
M  V30 10 1 10 3
M  V30 11 1 11 3
M  V30 12 1 12 4
M  V30 13 1 13 4
M  V30 14 1 14 5
M  V30 15 1 15 5
M  V30 16 1 16 7
M  V30 17 1 17 7
M  V30 18 1 18 7
M  V30 19 1 19 8
M  V30 20 1 20 1
M  V30 END BOND
M  V30 END CTAB
M  END
$$$$
R-group 148 (10481-1)
     RDKit          3D

  0  0  0  0  0  0  0  0  0  0999 V3000
M  V30 BEGIN CTAB
M  V30 COUNTS 12 12 0 0 1
M  V30 BEGIN ATOM
M  V30 1 C 74.042800 55.055700 41.811800 0
M  V30 2 O 74.873000 55.495100 42.797500 0
M  V30 3 C 75.013200 56.824400 42.626700 0
M  V30 4 C 74.208400 57.254700 41.622800 0
M  V30 5 C 73.674400 56.103100 40.996800 0
M  V30 6 C 72.809900 56.127800 39.760900 0
M  V30 7 H 75.653800 57.320300 43.341400 0
M  V30 8 H 74.071300 58.280500 41.330300 0
M  V30 9 H 72.704600 57.150700 39.395900 0
M  V30 10 H 73.260800 55.537000 38.961900 0
M  V30 11 H 71.813000 55.743200 39.973100 0
M  V30 12 R 73.698000 53.591600 41.874800 0
M  V30 END ATOM
M  V30 BEGIN BOND
M  V30 1 1 2 1
M  V30 2 1 3 2
M  V30 3 2 4 3
M  V30 4 2 5 1
M  V30 5 1 5 4
M  V30 6 1 6 5
M  V30 7 1 7 3
M  V30 8 1 8 4
M  V30 9 1 9 6
M  V30 10 1 10 6
M  V30 11 1 11 6
M  V30 12 1 12 1
M  V30 END BOND
M  V30 END CTAB
M  END
$$$$
R-group 149 (28839-1)
     RDKit          3D

  0  0  0  0  0  0  0  0  0  0999 V3000
M  V30 BEGIN CTAB
M  V30 COUNTS 13 13 0 0 1
M  V30 BEGIN ATOM
M  V30 1 C 74.385200 55.139500 41.564700 0
M  V30 2 N 75.418700 55.511900 40.716800 0
M  V30 3 C 75.712500 56.769400 41.036800 0
M  V30 4 C 76.833900 57.675100 40.653000 0
M  V30 5 O 74.886400 57.257900 41.967200 0
M  V30 6 C 74.104800 56.240300 42.299100 0
M  V30 7 N 73.272200 56.488300 43.324700 0
M  V30 8 H 77.673000 57.258100 40.139700 0
M  V30 9 H 76.472300 58.475000 40.022600 0
M  V30 10 H 77.263400 58.057800 41.568000 0
M  V30 11 H 72.873700 55.731500 43.883200 0
M  V30 12 H 73.299200 57.370300 43.812200 0
M  V30 13 R 73.814700 53.753200 41.701600 0
M  V30 END ATOM
M  V30 BEGIN BOND
M  V30 1 1 2 1
M  V30 2 2 3 2
M  V30 3 1 4 3
M  V30 4 1 5 3
M  V30 5 2 6 1
M  V30 6 1 6 5
M  V30 7 1 7 6
M  V30 8 1 8 4
M  V30 9 1 9 4
M  V30 10 1 10 4
M  V30 11 1 11 7
M  V30 12 1 12 7
M  V30 13 1 13 1
M  V30 END BOND
M  V30 END CTAB
M  END
$$$$
R-group 150 (20060-1)
     RDKit          3D

  0  0  0  0  0  0  0  0  0  0999 V3000
M  V30 BEGIN CTAB
M  V30 COUNTS 12 12 0 0 1
M  V30 BEGIN ATOM
M  V30 1 C 74.642400 55.215100 41.640000 0 CFG=2
M  V30 2 C 74.333500 56.437600 42.488000 0 CFG=1
M  V30 3 C 75.490800 57.206300 43.106300 0
M  V30 4 C 74.085400 56.462300 40.994300 0
M  V30 5 F 74.946100 57.193900 40.193900 0
M  V30 6 F 72.787100 56.442000 40.524700 0
M  V30 7 H 75.694900 55.055700 41.419500 0
M  V30 8 H 73.465500 56.345000 43.138200 0
M  V30 9 H 76.165600 57.589200 42.339700 0
M  V30 10 H 75.139600 58.035000 43.724500 0
M  V30 11 H 76.071300 56.534500 43.734900 0
M  V30 12 R 73.863600 53.897900 41.759500 0
M  V30 END ATOM
M  V30 BEGIN BOND
M  V30 1 1 2 1
M  V30 2 1 3 2
M  V30 3 1 4 1
M  V30 4 1 4 2
M  V30 5 1 5 4
M  V30 6 1 6 4
M  V30 7 1 1 7 CFG=3
M  V30 8 1 2 8 CFG=1
M  V30 9 1 9 3
M  V30 10 1 10 3
M  V30 11 1 11 3
M  V30 12 1 12 1
M  V30 END BOND
M  V30 END CTAB
M  END
$$$$
R-group 151 (11221-1)
     RDKit          3D

  0  0  0  0  0  0  0  0  0  0999 V3000
M  V30 BEGIN CTAB
M  V30 COUNTS 18 18 0 0 1
M  V30 BEGIN ATOM
M  V30 1 C 73.378000 57.536700 43.234400 0
M  V30 2 C 73.432300 56.000300 43.126700 0
M  V30 3 C 74.040400 55.365700 41.842400 0
M  V30 4 C 75.540000 55.688100 41.634700 0
M  V30 5 C 75.179500 56.867200 40.749600 0
M  V30 6 C 73.825300 56.196200 40.538900 0
M  V30 7 H 72.827700 57.828400 44.124800 0
M  V30 8 H 74.372200 57.970900 43.325200 0
M  V30 9 H 72.866300 58.007600 42.397300 0
M  V30 10 H 72.411500 55.657800 43.277600 0
M  V30 11 H 74.000600 55.657900 43.988700 0
M  V30 12 H 76.076600 55.955700 42.545100 0
M  V30 13 H 76.072000 54.930100 41.070500 0
M  V30 14 H 75.150600 57.787400 41.324700 0
M  V30 15 H 75.782100 56.967000 39.849300 0
M  V30 16 H 73.830500 55.642600 39.603800 0
M  V30 17 H 72.973400 56.873500 40.544200 0
M  V30 18 R 73.671700 53.828600 41.840200 0
M  V30 END ATOM
M  V30 BEGIN BOND
M  V30 1 1 2 1
M  V30 2 1 3 2
M  V30 3 1 4 3
M  V30 4 1 5 4
M  V30 5 1 6 3
M  V30 6 1 6 5
M  V30 7 1 7 1
M  V30 8 1 8 1
M  V30 9 1 9 1
M  V30 10 1 10 2
M  V30 11 1 11 2
M  V30 12 1 12 4
M  V30 13 1 13 4
M  V30 14 1 14 5
M  V30 15 1 15 5
M  V30 16 1 16 6
M  V30 17 1 17 6
M  V30 18 1 18 3
M  V30 END BOND
M  V30 END CTAB
M  END
$$$$
R-group 152 (31004-4)
     RDKit          3D

  0  0  0  0  0  0  0  0  0  0999 V3000
M  V30 BEGIN CTAB
M  V30 COUNTS 18 18 0 0 1
M  V30 BEGIN ATOM
M  V30 1 C 73.702700 55.033900 41.730600 0 CFG=1
M  V30 2 C 73.519600 55.883300 42.983900 0
M  V30 3 C 73.978100 57.290900 42.584000 0
M  V30 4 C 74.614600 57.154200 41.188800 0 CFG=2
M  V30 5 C 73.671100 57.653400 40.060600 0
M  V30 6 C 74.913400 55.663400 41.052700 0
M  V30 7 H 72.871300 55.289800 41.093700 0
M  V30 8 H 72.485400 55.874600 43.324700 0
M  V30 9 H 74.152000 55.517900 43.788600 0
M  V30 10 H 73.144800 57.993900 42.580200 0
M  V30 11 H 74.703600 57.660400 43.308400 0
M  V30 12 H 75.571400 57.668700 41.146600 0
M  V30 13 H 72.793300 57.024900 39.924800 0
M  V30 14 H 73.271000 58.647300 40.250900 0
M  V30 15 H 74.191600 57.666200 39.103500 0
M  V30 16 H 75.831500 55.401800 41.578000 0
M  V30 17 H 75.034800 55.416700 40.005500 0
M  V30 18 R 73.587400 53.501300 41.871300 0
M  V30 END ATOM
M  V30 BEGIN BOND
M  V30 1 1 2 1
M  V30 2 1 3 2
M  V30 3 1 4 3
M  V30 4 1 5 4
M  V30 5 1 6 1
M  V30 6 1 6 4
M  V30 7 1 1 7 CFG=3
M  V30 8 1 8 2
M  V30 9 1 9 2
M  V30 10 1 10 3
M  V30 11 1 11 3
M  V30 12 1 4 12 CFG=1
M  V30 13 1 13 5
M  V30 14 1 14 5
M  V30 15 1 15 5
M  V30 16 1 16 6
M  V30 17 1 17 6
M  V30 18 1 18 1
M  V30 END BOND
M  V30 END CTAB
M  END
$$$$
R-group 153 (42176-1)
     RDKit          3D

  0  0  0  0  0  0  0  0  0  0999 V3000
M  V30 BEGIN CTAB
M  V30 COUNTS 9 9 0 0 1
M  V30 BEGIN ATOM
M  V30 1 C 74.049400 54.814500 41.774500 0
M  V30 2 S 73.671200 55.842900 40.405600 0
M  V30 3 C 73.937600 57.257900 41.353100 0
M  V30 4 C 74.566200 56.951200 42.524100 0
M  V30 5 C 74.680100 55.565700 42.726100 0
M  V30 6 F 75.272400 55.100500 43.797800 0
M  V30 7 H 73.672200 58.226700 40.956200 0
M  V30 8 H 74.933100 57.658900 43.250900 0
M  V30 9 R 73.668500 53.361700 41.805400 0
M  V30 END ATOM
M  V30 BEGIN BOND
M  V30 1 1 2 1
M  V30 2 1 3 2
M  V30 3 2 4 3
M  V30 4 2 5 1
M  V30 5 1 5 4
M  V30 6 1 6 5
M  V30 7 1 7 3
M  V30 8 1 8 4
M  V30 9 1 9 1
M  V30 END BOND
M  V30 END CTAB
M  END
$$$$
R-group 154 (1210-1)
     RDKit          3D

  0  0  0  0  0  0  0  0  0  0999 V3000
M  V30 BEGIN CTAB
M  V30 COUNTS 14 14 0 0 1
M  V30 BEGIN ATOM
M  V30 1 C 72.641200 54.209500 41.981200 0
M  V30 2 C 73.676400 55.300800 41.856600 0
M  V30 3 C 74.540300 55.650200 42.920300 0
M  V30 4 C 75.665400 56.452000 42.643500 0
M  V30 5 C 75.863500 56.858200 41.319700 0
M  V30 6 C 74.886400 56.545200 40.356500 0
M  V30 7 N 73.812000 55.789900 40.610900 0
M  V30 8 H 71.821600 54.410200 41.288500 0
M  V30 9 H 72.161000 54.228900 42.937400 0
M  V30 10 H 74.379500 55.257400 43.914600 0
M  V30 11 H 76.359300 56.715200 43.426400 0
M  V30 12 H 76.721000 57.458600 41.055900 0
M  V30 13 H 74.983800 56.902700 39.341900 0
M  V30 14 R 73.207500 52.821200 41.650200 0
M  V30 END ATOM
M  V30 BEGIN BOND
M  V30 1 1 2 1
M  V30 2 2 3 2
M  V30 3 1 4 3
M  V30 4 2 5 4
M  V30 5 1 6 5
M  V30 6 1 7 2
M  V30 7 2 7 6
M  V30 8 1 8 1
M  V30 9 1 9 1
M  V30 10 1 10 3
M  V30 11 1 11 4
M  V30 12 1 12 5
M  V30 13 1 13 6
M  V30 14 1 14 1
M  V30 END BOND
M  V30 END CTAB
M  END
$$$$
R-group 155 (532-1)
     RDKit          3D

  0  0  0  0  0  0  0  0  0  0999 V3000
M  V30 BEGIN CTAB
M  V30 COUNTS 11 11 0 0 1
M  V30 BEGIN ATOM
M  V30 1 C 73.677500 54.788900 41.455600 0
M  V30 2 C 73.362300 55.445300 40.235000 0
M  V30 3 C 73.368700 56.844500 40.190900 0
M  V30 4 C 73.671800 57.522900 41.380200 0
M  V30 5 N 74.061100 56.931300 42.514900 0
M  V30 6 C 74.071900 55.593700 42.537900 0
M  V30 7 H 73.068300 54.924700 39.339300 0
M  V30 8 H 73.121500 57.378800 39.285200 0
M  V30 9 H 73.663500 58.596500 41.409400 0
M  V30 10 H 74.326700 55.171300 43.493900 0
M  V30 11 R 73.522000 53.283300 41.647900 0
M  V30 END ATOM
M  V30 BEGIN BOND
M  V30 1 2 2 1
M  V30 2 1 3 2
M  V30 3 2 4 3
M  V30 4 1 5 4
M  V30 5 1 6 1
M  V30 6 2 6 5
M  V30 7 1 7 2
M  V30 8 1 8 3
M  V30 9 1 9 4
M  V30 10 1 10 6
M  V30 11 1 11 1
M  V30 END BOND
M  V30 END CTAB
M  END
$$$$
R-group 156 (42838-1)
     RDKit          3D

  0  0  0  0  0  0  0  0  0  0999 V3000
M  V30 BEGIN CTAB
M  V30 COUNTS 15 15 0 0 1
M  V30 BEGIN ATOM
M  V30 1 C 73.529900 54.970400 41.622100 0 CFG=1
M  V30 2 C 73.387200 55.750700 42.925900 0
M  V30 3 C 73.831800 57.161600 42.533700 0
M  V30 4 C 75.070600 56.875000 41.688200 0
M  V30 5 C 74.734500 55.612700 40.906500 0
M  V30 6 F 75.819000 54.859300 40.898400 0
M  V30 7 F 74.417600 55.928700 39.647400 0
M  V30 8 H 72.678400 55.258400 41.007000 0
M  V30 9 H 72.375900 55.675700 43.325500 0
M  V30 10 H 74.072000 55.377000 43.690400 0
M  V30 11 H 74.049900 57.799400 43.389600 0
M  V30 12 H 73.064900 57.651700 41.934400 0
M  V30 13 H 75.917600 56.694400 42.353800 0
M  V30 14 H 75.367700 57.657900 41.003000 0
M  V30 15 R 73.430100 53.430900 41.721700 0
M  V30 END ATOM
M  V30 BEGIN BOND
M  V30 1 1 2 1
M  V30 2 1 3 2
M  V30 3 1 4 3
M  V30 4 1 5 1
M  V30 5 1 5 4
M  V30 6 1 6 5
M  V30 7 1 7 5
M  V30 8 1 1 8 CFG=3
M  V30 9 1 9 2
M  V30 10 1 10 2
M  V30 11 1 11 3
M  V30 12 1 12 3
M  V30 13 1 13 4
M  V30 14 1 14 4
M  V30 15 1 15 1
M  V30 END BOND
M  V30 END CTAB
M  END
$$$$
R-group 157 (11223-1)
     RDKit          3D

  0  0  0  0  0  0  0  0  0  0999 V3000
M  V30 BEGIN CTAB
M  V30 COUNTS 21 21 0 0 1
M  V30 BEGIN ATOM
M  V30 1 C 76.210200 56.857700 41.922800 0
M  V30 2 C 75.561800 55.514300 41.541800 0
M  V30 3 C 74.022600 55.291600 41.751500 0
M  V30 4 C 73.258600 56.111300 40.698100 0
M  V30 5 C 73.081600 57.512100 41.275000 0
M  V30 6 C 73.307500 57.425100 42.793700 0
M  V30 7 C 73.531800 55.931900 43.061600 0
M  V30 8 H 77.272100 56.852700 41.724800 0
M  V30 9 H 75.840800 57.680300 41.325000 0
M  V30 10 H 76.103400 57.085200 42.983400 0
M  V30 11 H 76.071200 54.778800 42.124700 0
M  V30 12 H 75.850100 55.311400 40.517000 0
M  V30 13 H 73.758200 56.127200 39.728900 0
M  V30 14 H 72.276300 55.697300 40.520200 0
M  V30 15 H 73.873900 58.058200 40.817100 0
M  V30 16 H 72.146300 57.999000 40.992500 0
M  V30 17 H 74.153700 58.042900 43.090700 0
M  V30 18 H 72.471900 57.811300 43.370500 0
M  V30 19 H 72.541900 55.558200 43.313200 0
M  V30 20 H 74.173600 55.658400 43.901000 0
M  V30 21 R 73.604800 53.760700 41.741300 0
M  V30 END ATOM
M  V30 BEGIN BOND
M  V30 1 1 2 1
M  V30 2 1 3 2
M  V30 3 1 4 3
M  V30 4 1 5 4
M  V30 5 1 6 5
M  V30 6 1 7 3
M  V30 7 1 7 6
M  V30 8 1 8 1
M  V30 9 1 9 1
M  V30 10 1 10 1
M  V30 11 1 11 2
M  V30 12 1 12 2
M  V30 13 1 13 4
M  V30 14 1 14 4
M  V30 15 1 15 5
M  V30 16 1 16 5
M  V30 17 1 17 6
M  V30 18 1 18 6
M  V30 19 1 19 7
M  V30 20 1 20 7
M  V30 21 1 21 3
M  V30 END BOND
M  V30 END CTAB
M  END
$$$$
R-group 158 (27107-2)
     RDKit          3D

  0  0  0  0  0  0  0  0  0  0999 V3000
M  V30 BEGIN CTAB
M  V30 COUNTS 15 14 0 0 1
M  V30 BEGIN ATOM
M  V30 1 N 73.200900 54.218300 41.864500 0
M  V30 2 C 73.672300 55.199300 41.089700 0
M  V30 3 O 74.069600 55.111500 39.933700 0
M  V30 4 C 73.664600 56.526700 41.793900 0 CFG=2
M  V30 5 C 73.330500 57.659700 40.813800 0
M  V30 6 C 75.005500 56.647600 42.513600 0
M  V30 7 F 75.272000 55.583100 43.271900 0
M  V30 8 F 74.860900 57.657700 43.324500 0
M  V30 9 F 76.022900 56.856700 41.676400 0
M  V30 10 H 72.877000 56.518800 42.552300 0
M  V30 11 H 72.345900 57.513000 40.370700 0
M  V30 12 H 73.314300 58.627200 41.313400 0
M  V30 13 H 74.048500 57.660200 39.992200 0
M  V30 14 H 72.871600 54.506800 42.779400 0
M  V30 15 R 73.337700 52.798100 41.727900 0
M  V30 END ATOM
M  V30 BEGIN BOND
M  V30 1 1 2 1
M  V30 2 2 3 2
M  V30 3 1 4 2
M  V30 4 1 5 4
M  V30 5 1 6 4
M  V30 6 1 7 6
M  V30 7 1 8 6
M  V30 8 1 9 6
M  V30 9 1 4 10 CFG=1
M  V30 10 1 11 5
M  V30 11 1 12 5
M  V30 12 1 13 5
M  V30 13 1 14 1
M  V30 14 1 15 1
M  V30 END BOND
M  V30 END CTAB
M  END
$$$$
R-group 159 (3493-1)
     RDKit          3D

  0  0  0  0  0  0  0  0  0  0999 V3000
M  V30 BEGIN CTAB
M  V30 COUNTS 10 9 0 0 1
M  V30 BEGIN ATOM
M  V30 1 N 73.680300 55.077000 42.126400 0
M  V30 2 C 75.068200 55.540000 42.100200 0
M  V30 3 C 75.138800 57.053500 42.287000 0
M  V30 4 F 76.415800 57.436000 42.226400 0
M  V30 5 F 74.446200 57.658000 41.324800 0
M  V30 6 H 73.300800 55.248200 43.051900 0
M  V30 7 H 75.646600 55.067200 42.893000 0
M  V30 8 H 75.543400 55.281700 41.157800 0
M  V30 9 H 74.738800 57.379600 43.247500 0
M  V30 10 R 73.495300 53.658500 41.821500 0
M  V30 END ATOM
M  V30 BEGIN BOND
M  V30 1 1 2 1
M  V30 2 1 3 2
M  V30 3 1 4 3
M  V30 4 1 5 3
M  V30 5 1 6 1
M  V30 6 1 7 2
M  V30 7 1 8 2
M  V30 8 1 9 3
M  V30 9 1 10 1
M  V30 END BOND
M  V30 END CTAB
M  END
$$$$
R-group 160 (3523-1)
     RDKit          3D

  0  0  0  0  0  0  0  0  0  0999 V3000
M  V30 BEGIN CTAB
M  V30 COUNTS 14 14 0 0 1
M  V30 BEGIN ATOM
M  V30 1 N 73.991000 55.163900 41.824300 0
M  V30 2 C 75.363200 55.572200 41.523500 0
M  V30 3 C 75.427300 57.040500 41.927500 0
M  V30 4 C 74.191200 57.267000 42.791200 0 CFG=1
M  V30 5 F 73.272600 57.940800 42.099700 0
M  V30 6 C 73.685300 55.853700 43.070900 0
M  V30 7 H 76.071200 55.013000 42.124400 0
M  V30 8 H 75.627300 55.458200 40.478000 0
M  V30 9 H 76.347000 57.254300 42.473200 0
M  V30 10 H 75.418800 57.657300 41.033600 0
M  V30 11 H 74.398900 57.844500 43.688900 0
M  V30 12 H 72.624500 55.827300 43.323200 0
M  V30 13 H 74.250900 55.417700 43.893800 0
M  V30 14 R 73.687600 53.724300 41.821700 0
M  V30 END ATOM
M  V30 BEGIN BOND
M  V30 1 1 2 1
M  V30 2 1 3 2
M  V30 3 1 4 3
M  V30 4 1 5 4
M  V30 5 1 6 1
M  V30 6 1 6 4
M  V30 7 1 7 2
M  V30 8 1 8 2
M  V30 9 1 9 3
M  V30 10 1 10 3
M  V30 11 1 4 11 CFG=1
M  V30 12 1 12 6
M  V30 13 1 13 6
M  V30 14 1 14 1
M  V30 END BOND
M  V30 END CTAB
M  END
$$$$
R-group 161 (13932-1)
     RDKit          3D

  0  0  0  0  0  0  0  0  0  0999 V3000
M  V30 BEGIN CTAB
M  V30 COUNTS 8 8 0 0 1
M  V30 BEGIN ATOM
M  V30 1 C 73.808700 54.756600 41.592000 0
M  V30 2 N 73.468000 55.442800 40.409700 0
M  V30 3 C 73.668900 56.753600 40.508900 0
M  V30 4 S 74.073000 57.258300 42.127900 0
M  V30 5 C 74.327700 55.613300 42.521600 0
M  V30 6 F 74.884500 55.257900 43.698700 0
M  V30 7 H 73.447900 57.414100 39.681800 0
M  V30 8 R 73.546600 53.283000 41.728000 0
M  V30 END ATOM
M  V30 BEGIN BOND
M  V30 1 1 2 1
M  V30 2 2 3 2
M  V30 3 1 4 3
M  V30 4 2 5 1
M  V30 5 1 5 4
M  V30 6 1 6 5
M  V30 7 1 7 3
M  V30 8 1 8 1
M  V30 END BOND
M  V30 END CTAB
M  END
$$$$
R-group 162 (14921-1)
     RDKit          3D

  0  0  0  0  0  0  0  0  0  0999 V3000
M  V30 BEGIN CTAB
M  V30 COUNTS 14 14 0 0 1
M  V30 BEGIN ATOM
M  V30 1 N 73.993800 55.061200 41.717900 0
M  V30 2 C 75.359000 55.478600 41.405900 0
M  V30 3 C 75.197900 56.986100 41.349800 0
M  V30 4 C 74.061900 57.258400 42.335300 0
M  V30 5 F 73.046200 57.848600 41.703200 0
M  V30 6 F 74.468000 58.047000 43.324700 0
M  V30 7 C 73.639100 55.888900 42.856700 0
M  V30 8 H 76.058500 55.222000 42.200000 0
M  V30 9 H 75.754800 55.098200 40.471400 0
M  V30 10 H 76.122800 57.511100 41.596400 0
M  V30 11 H 74.906000 57.259100 40.335200 0
M  V30 12 H 72.583400 55.837900 43.123900 0
M  V30 13 H 74.231300 55.604400 43.725900 0
M  V30 14 R 73.686500 53.639600 41.860500 0
M  V30 END ATOM
M  V30 BEGIN BOND
M  V30 1 1 2 1
M  V30 2 1 3 2
M  V30 3 1 4 3
M  V30 4 1 5 4
M  V30 5 1 6 4
M  V30 6 1 7 1
M  V30 7 1 7 4
M  V30 8 1 8 2
M  V30 9 1 9 2
M  V30 10 1 10 3
M  V30 11 1 11 3
M  V30 12 1 12 7
M  V30 13 1 13 7
M  V30 14 1 14 1
M  V30 END BOND
M  V30 END CTAB
M  END
$$$$
R-group 163 (12885-2)
     RDKit          3D

  0  0  0  0  0  0  0  0  0  0999 V3000
M  V30 BEGIN CTAB
M  V30 COUNTS 20 19 0 0 1
M  V30 BEGIN ATOM
M  V30 1 C 73.298000 54.592700 42.076100 0
M  V30 2 C 74.672100 55.303600 42.075500 0 CFG=2
M  V30 3 F 75.270000 55.139200 43.255900 0
M  V30 4 C 74.650200 56.811300 41.776500 0
M  V30 5 C 76.086200 57.198800 41.337300 0
M  V30 6 C 74.238500 57.545400 43.070900 0
M  V30 7 C 73.664500 57.158700 40.631600 0
M  V30 8 H 72.698600 54.897700 42.925200 0
M  V30 9 H 72.707000 54.895900 41.221900 0
M  V30 10 H 75.331900 54.814100 41.365900 0
M  V30 11 H 76.200300 58.238500 41.049300 0
M  V30 12 H 76.394000 56.619700 40.465800 0
M  V30 13 H 76.821800 57.007500 42.119200 0
M  V30 14 H 73.543800 56.993500 43.718900 0
M  V30 15 H 75.107000 57.772000 43.691400 0
M  V30 16 H 73.738100 58.459500 42.810800 0
M  V30 17 H 72.629600 56.990300 40.912800 0
M  V30 18 H 73.672100 58.208300 40.358200 0
M  V30 19 H 73.875000 56.579300 39.732600 0
M  V30 20 R 73.346300 53.067100 41.964500 0
M  V30 END ATOM
M  V30 BEGIN BOND
M  V30 1 1 2 1
M  V30 2 1 3 2
M  V30 3 1 4 2
M  V30 4 1 5 4
M  V30 5 1 6 4
M  V30 6 1 7 4
M  V30 7 1 8 1
M  V30 8 1 9 1
M  V30 9 1 2 10 CFG=3
M  V30 10 1 11 5
M  V30 11 1 12 5
M  V30 12 1 13 5
M  V30 13 1 14 6
M  V30 14 1 15 6
M  V30 15 1 16 6
M  V30 16 1 17 7
M  V30 17 1 18 7
M  V30 18 1 19 7
M  V30 19 1 20 1
M  V30 END BOND
M  V30 END CTAB
M  END
$$$$
R-group 164 (28054-3)
     RDKit          3D

  0  0  0  0  0  0  0  0  0  0999 V3000
M  V30 BEGIN CTAB
M  V30 COUNTS 19 19 0 0 1
M  V30 BEGIN ATOM
M  V30 1 C 73.956300 55.004900 41.386300 0 CFG=1
M  V30 2 C 73.076600 55.758700 40.391700 0
M  V30 3 C 73.195700 57.235600 40.760600 0
M  V30 4 C 73.403100 57.263300 42.273800 0
M  V30 5 C 73.910500 55.855200 42.663900 0 CFG=2
M  V30 6 C 75.280000 55.798700 43.336900 0
M  V30 7 O 76.070100 56.857900 42.881500 0
M  V30 8 H 74.966300 55.055100 40.974500 0
M  V30 9 H 73.359600 55.579200 39.354800 0
M  V30 10 H 72.070300 55.392100 40.524100 0
M  V30 11 H 74.071500 57.650700 40.266600 0
M  V30 12 H 72.329500 57.819600 40.452100 0
M  V30 13 H 72.472400 57.462900 42.790700 0
M  V30 14 H 74.049400 58.091400 42.555900 0
M  V30 15 H 73.166600 55.422200 43.321400 0
M  V30 16 H 75.272400 55.657800 44.419400 0
M  V30 17 H 75.770800 54.902200 43.015800 0
M  V30 18 H 75.960600 57.601500 43.458900 0
M  V30 19 R 73.563000 53.509900 41.612700 0
M  V30 END ATOM
M  V30 BEGIN BOND
M  V30 1 1 2 1
M  V30 2 1 3 2
M  V30 3 1 4 3
M  V30 4 1 5 1
M  V30 5 1 5 4
M  V30 6 1 6 5
M  V30 7 1 7 6
M  V30 8 1 1 8 CFG=3
M  V30 9 1 9 2
M  V30 10 1 10 2
M  V30 11 1 11 3
M  V30 12 1 12 3
M  V30 13 1 13 4
M  V30 14 1 14 4
M  V30 15 1 5 15 CFG=1
M  V30 16 1 16 6
M  V30 17 1 17 6
M  V30 18 1 18 7
M  V30 19 1 19 1
M  V30 END BOND
M  V30 END CTAB
M  END
$$$$
R-group 165 (18506-2)
     RDKit          3D

  0  0  0  0  0  0  0  0  0  0999 V3000
M  V30 BEGIN CTAB
M  V30 COUNTS 16 16 0 0 1
M  V30 BEGIN ATOM
M  V30 1 C 73.914800 55.311900 41.882200 0 CFG=2
M  V30 2 C 73.271700 56.294600 40.876000 0
M  V30 3 C 74.345100 56.696400 39.866600 0
M  V30 4 C 75.626500 56.706900 40.689900 0
M  V30 5 C 75.397700 55.738900 41.853500 0 CFG=1
M  V30 6 O 75.672400 56.446500 43.032400 0
M  V30 7 H 73.498400 55.544700 42.866400 0
M  V30 8 H 72.387000 55.920900 40.375000 0
M  V30 9 H 72.960900 57.189700 41.418600 0
M  V30 10 H 74.138200 57.658400 39.395000 0
M  V30 11 H 74.403200 55.969600 39.060400 0
M  V30 12 H 75.814800 57.713300 41.053200 0
M  V30 13 H 76.510400 56.418800 40.126500 0
M  V30 14 H 76.072300 54.898100 41.747800 0
M  V30 15 H 76.439100 56.987000 42.893200 0
M  V30 16 R 73.615500 53.777500 41.698200 0
M  V30 END ATOM
M  V30 BEGIN BOND
M  V30 1 1 2 1
M  V30 2 1 3 2
M  V30 3 1 4 3
M  V30 4 1 5 1
M  V30 5 1 5 4
M  V30 6 1 6 5
M  V30 7 1 1 7 CFG=1
M  V30 8 1 8 2
M  V30 9 1 9 2
M  V30 10 1 10 3
M  V30 11 1 11 3
M  V30 12 1 12 4
M  V30 13 1 13 4
M  V30 14 1 5 14 CFG=3
M  V30 15 1 15 6
M  V30 16 1 16 1
M  V30 END BOND
M  V30 END CTAB
M  END
$$$$
R-group 166 (12647-1)
     RDKit          3D

  0  0  0  0  0  0  0  0  0  0999 V3000
M  V30 BEGIN CTAB
M  V30 COUNTS 14 14 0 0 1
M  V30 BEGIN ATOM
M  V30 1 C 72.877100 54.369700 41.949700 0
M  V30 2 C 73.960700 55.385500 41.844100 0
M  V30 3 O 74.777600 55.528100 42.924700 0
M  V30 4 C 75.672400 56.458000 42.526500 0
M  V30 5 N 75.522700 56.858000 41.271600 0
M  V30 6 C 74.375200 56.222200 40.838400 0
M  V30 7 C 73.809000 56.475500 39.475800 0
M  V30 8 H 72.076500 54.576100 41.241800 0
M  V30 9 H 72.409700 54.415600 42.924600 0
M  V30 10 H 76.471000 56.783200 43.176000 0
M  V30 11 H 72.830700 56.010600 39.352900 0
M  V30 12 H 73.686200 57.544500 39.298700 0
M  V30 13 H 74.463700 56.086600 38.696800 0
M  V30 14 R 73.353800 52.953300 41.643600 0
M  V30 END ATOM
M  V30 BEGIN BOND
M  V30 1 1 2 1
M  V30 2 1 3 2
M  V30 3 1 4 3
M  V30 4 2 5 4
M  V30 5 2 6 2
M  V30 6 1 6 5
M  V30 7 1 7 6
M  V30 8 1 8 1
M  V30 9 1 9 1
M  V30 10 1 10 4
M  V30 11 1 11 7
M  V30 12 1 12 7
M  V30 13 1 13 7
M  V30 14 1 14 1
M  V30 END BOND
M  V30 END CTAB
M  END
$$$$
R-group 167 (5689-1)
     RDKit          3D

  0  0  0  0  0  0  0  0  0  0999 V3000
M  V30 BEGIN CTAB
M  V30 COUNTS 11 11 0 0 1
M  V30 BEGIN ATOM
M  V30 1 C 72.768000 54.284100 41.970500 0
M  V30 2 C 73.817700 55.342700 41.915500 0
M  V30 3 N 74.649900 55.605900 42.923300 0
M  V30 4 C 75.672100 56.462800 42.548500 0
M  V30 5 C 75.607400 56.857600 41.243100 0
M  V30 6 S 74.175500 56.267200 40.463600 0
M  V30 7 H 71.975500 54.458100 41.250200 0
M  V30 8 H 72.269800 54.304000 42.927300 0
M  V30 9 H 76.452200 56.712700 43.262800 0
M  V30 10 H 76.295100 57.498100 40.705500 0
M  V30 11 R 73.308100 52.900000 41.636100 0
M  V30 END ATOM
M  V30 BEGIN BOND
M  V30 1 1 2 1
M  V30 2 2 3 2
M  V30 3 1 4 3
M  V30 4 2 5 4
M  V30 5 1 6 2
M  V30 6 1 6 5
M  V30 7 1 7 1
M  V30 8 1 8 1
M  V30 9 1 9 4
M  V30 10 1 10 5
M  V30 11 1 11 1
M  V30 END BOND
M  V30 END CTAB
M  END
$$$$
R-group 168 (8309-1)
     RDKit          3D

  0  0  0  0  0  0  0  0  0  0999 V3000
M  V30 BEGIN CTAB
M  V30 COUNTS 16 15 0 0 1
M  V30 BEGIN ATOM
M  V30 1 N 73.272400 54.708100 42.124700 0
M  V30 2 S 74.628900 55.746900 42.009700 0
M  V30 3 O 75.292200 55.681200 43.316700 0
M  V30 4 O 75.352100 55.424100 40.781900 0
M  V30 5 C 73.893000 57.395400 41.740900 0
M  V30 6 C 73.087100 57.822100 42.953300 0
M  V30 7 C 73.170000 57.487900 40.393400 0
M  V30 8 H 74.747600 58.057500 41.676300 0
M  V30 9 H 72.472600 58.699400 42.756600 0
M  V30 10 H 72.472400 57.013000 43.337200 0
M  V30 11 H 73.801700 58.061500 43.725000 0
M  V30 12 H 72.868900 58.517600 40.209400 0
M  V30 13 H 73.822600 57.193300 39.570600 0
M  V30 14 H 72.287300 56.853900 40.356200 0
M  V30 15 H 72.871700 54.808400 43.064800 0
M  V30 16 R 73.416700 53.288400 41.841300 0
M  V30 END ATOM
M  V30 BEGIN BOND
M  V30 1 1 2 1
M  V30 2 2 3 2
M  V30 3 2 4 2
M  V30 4 1 5 2
M  V30 5 1 6 5
M  V30 6 1 7 5
M  V30 7 1 8 5
M  V30 8 1 9 6
M  V30 9 1 10 6
M  V30 10 1 11 6
M  V30 11 1 12 7
M  V30 12 1 13 7
M  V30 13 1 14 7
M  V30 14 1 15 1
M  V30 15 1 16 1
M  V30 END BOND
M  V30 END CTAB
M  END
$$$$
R-group 169 (2419-1)
     RDKit          3D

  0  0  0  0  0  0  0  0  0  0999 V3000
M  V30 BEGIN CTAB
M  V30 COUNTS 8 8 0 0 1
M  V30 BEGIN ATOM
M  V30 1 C 73.735800 54.713700 41.544700 0
M  V30 2 C 73.431100 55.492800 40.371000 0
M  V30 3 C 73.786000 56.794500 40.529800 0
M  V30 4 S 74.472300 56.950700 42.101100 0
M  V30 5 N 74.305300 55.371200 42.524700 0
M  V30 6 H 72.969900 55.100200 39.479300 0
M  V30 7 H 73.693200 57.633500 39.855000 0
M  V30 8 R 73.485900 53.246100 41.736100 0
M  V30 END ATOM
M  V30 BEGIN BOND
M  V30 1 1 2 1
M  V30 2 2 3 2
M  V30 3 1 4 3
M  V30 4 2 5 1
M  V30 5 1 5 4
M  V30 6 1 6 2
M  V30 7 1 7 3
M  V30 8 1 8 1
M  V30 END BOND
M  V30 END CTAB
M  END
$$$$
R-group 170 (20060-2)
     RDKit          3D

  0  0  0  0  0  0  0  0  0  0999 V3000
M  V30 BEGIN CTAB
M  V30 COUNTS 12 12 0 0 1
M  V30 BEGIN ATOM
M  V30 1 C 74.657100 55.190500 41.736900 0 CFG=1
M  V30 2 C 74.350600 56.476400 40.967300 0 CFG=1
M  V30 3 C 73.190300 56.672600 40.012300 0
M  V30 4 C 74.166400 56.425300 42.460300 0
M  V30 5 F 72.873200 56.448200 42.951100 0
M  V30 6 F 75.075800 57.120300 43.237500 0
M  V30 7 H 75.731400 55.016100 41.777300 0
M  V30 8 H 75.232700 57.025400 40.639900 0
M  V30 9 H 72.346000 56.043400 40.266300 0
M  V30 10 H 72.869000 57.712600 40.040000 0
M  V30 11 H 73.501400 56.439500 38.993000 0
M  V30 12 R 73.857400 53.873600 41.785600 0
M  V30 END ATOM
M  V30 BEGIN BOND
M  V30 1 1 2 1
M  V30 2 1 3 2
M  V30 3 1 4 1
M  V30 4 1 4 2
M  V30 5 1 5 4
M  V30 6 1 6 4
M  V30 7 1 1 7 CFG=1
M  V30 8 1 2 8 CFG=1
M  V30 9 1 9 3
M  V30 10 1 10 3
M  V30 11 1 11 3
M  V30 12 1 12 1
M  V30 END BOND
M  V30 END CTAB
M  END
$$$$
R-group 171 (2349-1)
     RDKit          3D

  0  0  0  0  0  0  0  0  0  0999 V3000
M  V30 BEGIN CTAB
M  V30 COUNTS 12 12 0 0 1
M  V30 BEGIN ATOM
M  V30 1 C 72.843900 54.273500 41.952500 0
M  V30 2 N 73.895500 55.268800 41.855200 0
M  V30 3 C 74.779500 55.657100 42.836700 0
M  V30 4 C 75.642500 56.549900 42.275900 0
M  V30 5 C 75.191000 56.650700 40.932200 0
M  V30 6 N 74.124000 55.912200 40.690800 0
M  V30 7 H 72.037800 54.463100 41.244000 0
M  V30 8 H 72.383600 54.316700 42.925100 0
M  V30 9 H 74.726900 55.252100 43.838500 0
M  V30 10 H 76.470300 57.054500 42.752500 0
M  V30 11 H 75.590900 57.255300 40.131500 0
M  V30 12 R 73.338000 52.877000 41.614300 0
M  V30 END ATOM
M  V30 BEGIN BOND
M  V30 1 1 2 1
M  V30 2 1 3 2
M  V30 3 2 4 3
M  V30 4 1 5 4
M  V30 5 1 6 2
M  V30 6 2 6 5
M  V30 7 1 7 1
M  V30 8 1 8 1
M  V30 9 1 9 3
M  V30 10 1 10 4
M  V30 11 1 11 5
M  V30 12 1 12 1
M  V30 END BOND
M  V30 END CTAB
M  END
$$$$
R-group 172 (2114-1)
     RDKit          3D

  0  0  0  0  0  0  0  0  0  0999 V3000
M  V30 BEGIN CTAB
M  V30 COUNTS 16 16 0 0 1
M  V30 BEGIN ATOM
M  V30 1 C 74.108700 55.430300 41.588300 0
M  V30 2 O 73.382900 56.065600 40.536600 0
M  V30 3 C 73.946700 56.263700 42.886800 0
M  V30 4 C 75.315100 56.878600 43.213900 0
M  V30 5 C 76.003000 56.966100 41.868300 0
M  V30 6 C 75.559500 55.677400 41.191500 0
M  V30 7 H 73.200700 57.049700 42.759400 0
M  V30 8 H 73.621000 55.658000 43.724600 0
M  V30 9 H 75.250300 57.842300 43.721500 0
M  V30 10 H 75.881000 56.204200 43.858600 0
M  V30 11 H 75.621200 57.822900 41.321500 0
M  V30 12 H 77.083500 57.072300 41.937800 0
M  V30 13 H 76.072300 54.857800 41.636400 0
M  V30 14 H 75.767300 55.680200 40.124600 0
M  V30 15 H 73.589000 55.626500 39.725000 0
M  V30 16 R 73.700100 53.904600 41.769400 0
M  V30 END ATOM
M  V30 BEGIN BOND
M  V30 1 1 2 1
M  V30 2 1 3 1
M  V30 3 1 4 3
M  V30 4 1 5 4
M  V30 5 1 6 1
M  V30 6 1 6 5
M  V30 7 1 7 3
M  V30 8 1 8 3
M  V30 9 1 9 4
M  V30 10 1 10 4
M  V30 11 1 11 5
M  V30 12 1 12 5
M  V30 13 1 13 6
M  V30 14 1 14 6
M  V30 15 1 15 2
M  V30 16 1 16 1
M  V30 END BOND
M  V30 END CTAB
M  END
$$$$
R-group 173 (775-1)
     RDKit          3D

  0  0  0  0  0  0  0  0  0  0999 V3000
M  V30 BEGIN CTAB
M  V30 COUNTS 11 11 0 0 1
M  V30 BEGIN ATOM
M  V30 1 C 73.817000 54.582400 41.575600 0
M  V30 2 N 74.470500 55.370800 42.433300 0
M  V30 3 C 74.410800 56.700400 42.047900 0
M  V30 4 C 73.694700 56.877600 40.893500 0
M  V30 5 C 73.161900 58.116400 40.342900 0
M  V30 6 S 73.272500 55.409900 40.124500 0
M  V30 7 H 74.798000 57.458100 42.714000 0
M  V30 8 H 73.233500 58.857900 41.124800 0
M  V30 9 H 73.671700 58.427600 39.428700 0
M  V30 10 H 72.107800 57.968500 40.128000 0
M  V30 11 R 73.535100 53.143800 41.813800 0
M  V30 END ATOM
M  V30 BEGIN BOND
M  V30 1 2 2 1
M  V30 2 1 3 2
M  V30 3 2 4 3
M  V30 4 1 5 4
M  V30 5 1 6 1
M  V30 6 1 6 4
M  V30 7 1 7 3
M  V30 8 1 8 5
M  V30 9 1 9 5
M  V30 10 1 10 5
M  V30 11 1 11 1
M  V30 END BOND
M  V30 END CTAB
M  END
$$$$
R-group 174 (31007-3)
     RDKit          3D

  0  0  0  0  0  0  0  0  0  0999 V3000
M  V30 BEGIN CTAB
M  V30 COUNTS 21 21 0 0 1
M  V30 BEGIN ATOM
M  V30 1 C 76.992000 57.389900 40.525400 0
M  V30 2 C 76.332700 57.216600 41.873200 0
M  V30 3 C 74.849900 56.926500 41.599400 0 CFG=2
M  V30 4 C 73.983600 56.989900 42.841000 0
M  V30 5 C 73.237200 55.661900 42.835300 0
M  V30 6 C 73.382400 54.954400 41.498900 0 CFG=1
M  V30 7 C 74.669600 55.548500 40.943900 0
M  V30 8 H 78.035300 57.665300 40.524300 0
M  V30 9 H 76.972100 56.386700 40.125700 0
M  V30 10 H 76.442500 58.062000 39.864700 0
M  V30 11 H 76.484500 58.057900 42.537900 0
M  V30 12 H 76.810100 56.386200 42.387300 0
M  V30 13 H 74.431000 57.655600 40.911100 0
M  V30 14 H 73.299900 57.857900 42.828500 0
M  V30 15 H 74.652100 57.080200 43.723100 0
M  V30 16 H 72.243100 55.649300 43.323800 0
M  V30 17 H 73.931300 55.028000 43.326000 0
M  V30 18 H 72.567500 55.261500 40.847800 0
M  V30 19 H 75.515100 54.895700 41.162400 0
M  V30 20 H 74.628200 55.664500 39.860600 0
M  V30 21 R 73.366100 53.390300 41.617900 0
M  V30 END ATOM
M  V30 BEGIN BOND
M  V30 1 1 2 1
M  V30 2 1 3 2
M  V30 3 1 4 3
M  V30 4 1 5 4
M  V30 5 1 6 5
M  V30 6 1 7 3
M  V30 7 1 7 6
M  V30 8 1 8 1
M  V30 9 1 9 1
M  V30 10 1 10 1
M  V30 11 1 11 2
M  V30 12 1 12 2
M  V30 13 1 3 13 CFG=3
M  V30 14 1 14 4
M  V30 15 1 15 4
M  V30 16 1 16 5
M  V30 17 1 17 5
M  V30 18 1 6 18 CFG=3
M  V30 19 1 19 7
M  V30 20 1 20 7
M  V30 21 1 21 6
M  V30 END BOND
M  V30 END CTAB
M  END
$$$$
R-group 175 (7113-1)
     RDKit          3D

  0  0  0  0  0  0  0  0  0  0999 V3000
M  V30 BEGIN CTAB
M  V30 COUNTS 10 9 0 0 1
M  V30 BEGIN ATOM
M  V30 1 N 73.730200 55.072900 42.124700 0
M  V30 2 C 75.124000 55.494200 42.004600 0
M  V30 3 C 75.197800 56.953200 41.565500 0
M  V30 4 F 76.471400 57.258000 41.324800 0
M  V30 5 H 73.395800 55.291400 43.058000 0
M  V30 6 H 75.640900 55.352700 42.954800 0
M  V30 7 H 75.659900 54.897300 41.271200 0
M  V30 8 H 74.645200 57.124500 40.641300 0
M  V30 9 H 74.819400 57.631200 42.330200 0
M  V30 10 R 73.485900 53.652200 41.868600 0
M  V30 END ATOM
M  V30 BEGIN BOND
M  V30 1 1 2 1
M  V30 2 1 3 2
M  V30 3 1 4 3
M  V30 4 1 5 1
M  V30 5 1 6 2
M  V30 6 1 7 2
M  V30 7 1 8 3
M  V30 8 1 9 3
M  V30 9 1 10 1
M  V30 END BOND
M  V30 END CTAB
M  END
$$$$
R-group 176 (5896-1)
     RDKit          3D

  0  0  0  0  0  0  0  0  0  0999 V3000
M  V30 BEGIN CTAB
M  V30 COUNTS 15 14 0 0 1
M  V30 BEGIN ATOM
M  V30 1 C 74.059500 55.503500 41.810000 0
M  V30 2 C 73.531400 56.069400 43.152200 0
M  V30 3 C 75.569300 55.793600 41.810900 0
M  V30 4 C 73.425800 56.390100 40.686700 0
M  V30 5 O 74.071100 56.325600 39.429700 0
M  V30 6 H 73.664200 57.150600 43.211200 0
M  V30 7 H 72.474800 55.864100 43.318100 0
M  V30 8 H 74.073000 55.653200 44.002500 0
M  V30 9 H 75.776800 56.863300 41.729100 0
M  V30 10 H 76.000000 55.468700 42.750500 0
M  V30 11 H 76.072800 55.295500 40.986900 0
M  V30 12 H 72.390100 56.143900 40.517200 0
M  V30 13 H 73.450300 57.440500 40.980300 0
M  V30 14 H 73.738700 57.015800 38.868000 0
M  V30 15 R 73.721900 53.944800 41.734100 0
M  V30 END ATOM
M  V30 BEGIN BOND
M  V30 1 1 2 1
M  V30 2 1 3 1
M  V30 3 1 4 1
M  V30 4 1 5 4
M  V30 5 1 6 2
M  V30 6 1 7 2
M  V30 7 1 8 2
M  V30 8 1 9 3
M  V30 9 1 10 3
M  V30 10 1 11 3
M  V30 11 1 12 4
M  V30 12 1 13 4
M  V30 13 1 14 5
M  V30 14 1 15 1
M  V30 END BOND
M  V30 END CTAB
M  END
$$$$
R-group 177 (7064-1)
     RDKit          3D

  0  0  0  0  0  0  0  0  0  0999 V3000
M  V30 BEGIN CTAB
M  V30 COUNTS 14 14 0 0 1
M  V30 BEGIN ATOM
M  V30 1 C 73.930500 55.014700 41.739200 0
M  V30 2 C 74.471800 55.715000 42.753900 0
M  V30 3 C 74.566000 57.221500 42.736200 0
M  V30 4 O 73.672300 57.735500 41.766200 0
M  V30 5 C 73.933100 57.219400 40.475900 0
M  V30 6 C 73.471700 55.771200 40.484700 0
M  V30 7 H 74.791300 55.257900 43.667200 0
M  V30 8 H 74.283900 57.655000 43.698400 0
M  V30 9 H 75.598500 57.510900 42.542600 0
M  V30 10 H 74.995900 57.257000 40.228500 0
M  V30 11 H 73.392900 57.789300 39.721800 0
M  V30 12 H 73.837200 55.328500 39.562900 0
M  V30 13 H 72.392400 55.730500 40.421200 0
M  V30 14 R 73.631600 53.511100 41.802200 0
M  V30 END ATOM
M  V30 BEGIN BOND
M  V30 1 2 2 1
M  V30 2 1 3 2
M  V30 3 1 4 3
M  V30 4 1 5 4
M  V30 5 1 6 1
M  V30 6 1 6 5
M  V30 7 1 7 2
M  V30 8 1 8 3
M  V30 9 1 9 3
M  V30 10 1 10 5
M  V30 11 1 11 5
M  V30 12 1 12 6
M  V30 13 1 13 6
M  V30 14 1 14 1
M  V30 END BOND
M  V30 END CTAB
M  END
$$$$
R-group 178 (24913-1)
     RDKit          3D

  0  0  0  0  0  0  0  0  0  0999 V3000
M  V30 BEGIN CTAB
M  V30 COUNTS 15 15 0 0 1
M  V30 BEGIN ATOM
M  V30 1 C 73.989000 54.691200 41.375900 0
M  V30 2 N 73.671700 55.470600 42.527400 0
M  V30 3 C 74.304000 56.745600 42.652700 0
M  V30 4 C 75.820200 56.863600 42.670300 0
M  V30 5 O 75.801900 57.258200 41.283300 0
M  V30 6 C 74.380600 57.587000 41.418700 0
M  V30 7 H 75.056700 54.726500 41.157500 0
M  V30 8 H 73.469300 55.099800 40.507100 0
M  V30 9 H 73.731700 54.940100 43.391600 0
M  V30 10 H 73.848100 57.307000 43.470400 0
M  V30 11 H 76.193300 57.657600 43.322600 0
M  V30 12 H 76.350800 55.934800 42.850800 0
M  V30 13 H 73.780900 57.261700 40.570200 0
M  V30 14 H 74.078000 58.590200 41.724900 0
M  V30 15 R 73.558200 53.259700 41.629100 0
M  V30 END ATOM
M  V30 BEGIN BOND
M  V30 1 1 2 1
M  V30 2 1 3 2
M  V30 3 1 4 3
M  V30 4 1 5 4
M  V30 5 1 6 3
M  V30 6 1 6 5
M  V30 7 1 7 1
M  V30 8 1 8 1
M  V30 9 1 9 2
M  V30 10 1 10 3
M  V30 11 1 11 4
M  V30 12 1 12 4
M  V30 13 1 13 6
M  V30 14 1 14 6
M  V30 15 1 15 1
M  V30 END BOND
M  V30 END CTAB
M  END
$$$$
R-group 179 (11057-1)
     RDKit          3D

  0  0  0  0  0  0  0  0  0  0999 V3000
M  V30 BEGIN CTAB
M  V30 COUNTS 11 11 0 0 1
M  V30 BEGIN ATOM
M  V30 1 C 72.780500 54.289100 41.937600 0
M  V30 2 C 73.874100 55.307800 41.830800 0
M  V30 3 C 74.697400 55.658100 42.924700 0
M  V30 4 C 75.672600 56.541800 42.601600 0
M  V30 5 S 75.541400 56.854900 40.926900 0
M  V30 6 N 74.174300 55.910600 40.697400 0
M  V30 7 H 71.948400 54.455700 41.251400 0
M  V30 8 H 72.335200 54.296000 42.921700 0
M  V30 9 H 74.539700 55.244400 43.911800 0
M  V30 10 H 76.444600 56.988700 43.215000 0
M  V30 11 R 73.266400 52.885600 41.595600 0
M  V30 END ATOM
M  V30 BEGIN BOND
M  V30 1 1 2 1
M  V30 2 1 3 2
M  V30 3 2 4 3
M  V30 4 1 5 4
M  V30 5 2 6 2
M  V30 6 1 6 5
M  V30 7 1 7 1
M  V30 8 1 8 1
M  V30 9 1 9 3
M  V30 10 1 10 4
M  V30 11 1 11 1
M  V30 END BOND
M  V30 END CTAB
M  END
$$$$
R-group 180 (9417-1)
     RDKit          3D

  0  0  0  0  0  0  0  0  0  0999 V3000
M  V30 BEGIN CTAB
M  V30 COUNTS 18 19 0 0 1
M  V30 BEGIN ATOM
M  V30 1 C 74.093000 54.950700 41.663200 0
M  V30 2 C 74.080100 55.834000 42.669700 0
M  V30 3 C 74.564600 57.240600 42.446100 0 CFG=2
M  V30 4 C 73.416000 58.061000 41.885900 0
M  V30 5 C 73.388400 57.657100 40.417000 0
M  V30 6 C 74.738200 56.927800 40.224300 0 CFG=2
M  V30 7 C 74.590500 55.407800 40.290800 0
M  V30 8 O 75.498100 57.257900 41.372600 0
M  V30 9 H 73.717300 55.585100 43.655800 0
M  V30 10 H 74.998300 57.658700 43.351600 0
M  V30 11 H 73.660100 59.108700 41.993800 0
M  V30 12 H 72.474200 57.889200 42.401500 0
M  V30 13 H 73.272300 58.522100 39.766400 0
M  V30 14 H 72.546800 56.995900 40.204800 0
M  V30 15 H 75.261100 57.232800 39.325100 0
M  V30 16 H 75.563400 54.943900 40.126600 0
M  V30 17 H 73.910300 55.124300 39.489600 0
M  V30 18 R 73.631900 53.517000 41.850400 0
M  V30 END ATOM
M  V30 BEGIN BOND
M  V30 1 2 2 1
M  V30 2 1 3 2
M  V30 3 1 4 3
M  V30 4 1 5 4
M  V30 5 1 6 5
M  V30 6 1 7 1
M  V30 7 1 7 6
M  V30 8 1 8 3
M  V30 9 1 8 6
M  V30 10 1 9 2
M  V30 11 1 3 10 CFG=1
M  V30 12 1 11 4
M  V30 13 1 12 4
M  V30 14 1 13 5
M  V30 15 1 14 5
M  V30 16 1 6 15 CFG=3
M  V30 17 1 16 7
M  V30 18 1 17 7
M  V30 19 1 18 1
M  V30 END BOND
M  V30 END CTAB
M  END
$$$$
R-group 181 (7508-3)
     RDKit          3D

  0  0  0  0  0  0  0  0  0  0999 V3000
M  V30 BEGIN CTAB
M  V30 COUNTS 14 14 0 0 1
M  V30 BEGIN ATOM
M  V30 1 N 73.675200 54.587500 42.517400 0
M  V30 2 C 74.567100 55.475800 42.097000 0
M  V30 3 O 75.276600 55.289100 41.132300 0
M  V30 4 C 74.505300 56.804300 42.729400 0 CFG=2
M  V30 5 C 73.180200 57.302100 43.240600 0
M  V30 6 C 73.673500 57.706000 41.869100 0 CFG=2
M  V30 7 C 73.267400 57.241400 40.574300 0
M  V30 8 N 72.938800 56.851100 39.543100 0
M  V30 9 H 75.428500 57.208400 43.147300 0
M  V30 10 H 73.189900 58.059600 44.015800 0
M  V30 11 H 72.461900 56.518500 43.388700 0
M  V30 12 H 73.995200 58.730900 41.743500 0
M  V30 13 H 73.106300 54.848500 43.318700 0
M  V30 14 R 73.533100 53.217200 42.089700 0
M  V30 END ATOM
M  V30 BEGIN BOND
M  V30 1 1 2 1
M  V30 2 2 3 2
M  V30 3 1 4 2
M  V30 4 1 5 4
M  V30 5 1 6 4
M  V30 6 1 6 5
M  V30 7 1 7 6
M  V30 8 3 8 7
M  V30 9 1 4 9 CFG=1
M  V30 10 1 10 5
M  V30 11 1 11 5
M  V30 12 1 6 12 CFG=3
M  V30 13 1 13 1
M  V30 14 1 14 1
M  V30 END BOND
M  V30 END CTAB
M  END
$$$$
R-group 182 (2628-1)
     RDKit          3D

  0  0  0  0  0  0  0  0  0  0999 V3000
M  V30 BEGIN CTAB
M  V30 COUNTS 13 13 0 0 1
M  V30 BEGIN ATOM
M  V30 1 C 72.874200 54.326000 41.952200 0
M  V30 2 N 73.945700 55.303100 41.854800 0
M  V30 3 C 74.755200 55.673100 42.903700 0
M  V30 4 C 75.672100 56.570200 42.445100 0
M  V30 5 C 75.430900 56.746200 41.055900 0
M  V30 6 C 74.344100 55.992100 40.721200 0
M  V30 7 H 72.082700 54.553100 41.238400 0
M  V30 8 H 72.411300 54.376900 42.924600 0
M  V30 9 H 74.605700 55.258200 43.891100 0
M  V30 10 H 76.453900 57.043000 43.029700 0
M  V30 11 H 75.989700 57.383600 40.389700 0
M  V30 12 H 73.842700 55.880500 39.769200 0
M  V30 13 R 73.345200 52.915500 41.610500 0
M  V30 END ATOM
M  V30 BEGIN BOND
M  V30 1 1 2 1
M  V30 2 1 3 2
M  V30 3 2 4 3
M  V30 4 1 5 4
M  V30 5 1 6 2
M  V30 6 2 6 5
M  V30 7 1 7 1
M  V30 8 1 8 1
M  V30 9 1 9 3
M  V30 10 1 10 4
M  V30 11 1 11 5
M  V30 12 1 12 6
M  V30 13 1 13 1
M  V30 END BOND
M  V30 END CTAB
M  END
$$$$
R-group 183 (27088-1)
     RDKit          3D

  0  0  0  0  0  0  0  0  0  0999 V3000
M  V30 BEGIN CTAB
M  V30 COUNTS 12 11 0 0 1
M  V30 BEGIN ATOM
M  V30 1 N 73.672300 54.981100 42.433000 0
M  V30 2 C 74.328100 56.126600 42.208500 0
M  V30 3 O 75.310100 56.239900 41.475800 0
M  V30 4 C 73.728700 57.355900 42.899800 0
M  V30 5 C 72.979900 58.240400 41.898900 0
M  V30 6 F 72.872200 56.970000 43.849200 0
M  V30 7 F 74.706000 58.057800 43.460200 0
M  V30 8 H 72.266400 58.901600 42.392800 0
M  V30 9 H 73.672200 58.852800 41.342000 0
M  V30 10 H 72.451500 57.648500 41.156400 0
M  V30 11 H 72.962900 55.032100 43.159000 0
M  V30 12 R 73.758200 53.680300 41.778200 0
M  V30 END ATOM
M  V30 BEGIN BOND
M  V30 1 1 2 1
M  V30 2 2 3 2
M  V30 3 1 4 2
M  V30 4 1 5 4
M  V30 5 1 6 4
M  V30 6 1 7 4
M  V30 7 1 8 5
M  V30 8 1 9 5
M  V30 9 1 10 5
M  V30 10 1 11 1
M  V30 11 1 12 1
M  V30 END BOND
M  V30 END CTAB
M  END
$$$$
R-group 184 (28967-3)
     RDKit          3D

  0  0  0  0  0  0  0  0  0  0999 V3000
M  V30 BEGIN CTAB
M  V30 COUNTS 26 28 0 0 1
M  V30 BEGIN ATOM
M  V30 1 C 73.345700 54.482100 42.319100 0
M  V30 2 C 74.231200 55.304700 41.388400 0 CFG=2
M  V30 3 C 75.063000 56.367600 42.121700 0 CFG=2
M  V30 4 C 74.152600 57.348800 42.890400 0
M  V30 5 C 73.414900 58.062600 41.754900 0
M  V30 6 C 74.067700 57.473300 40.492200 0 CFG=1
M  V30 7 C 75.506100 57.198500 40.929000 0
M  V30 8 C 73.509500 56.103100 40.298500 0
M  V30 9 C 72.119300 55.902100 39.725300 0
M  V30 10 C 73.329100 55.568400 38.895800 0
M  V30 11 H 72.313500 54.796600 42.306500 0
M  V30 12 H 73.674800 54.690800 43.324600 0
M  V30 13 H 74.983500 54.673800 40.945800 0
M  V30 14 H 75.871100 55.953500 42.725300 0
M  V30 15 H 73.467300 56.872300 43.589100 0
M  V30 16 H 74.757200 58.056100 43.461300 0
M  V30 17 H 72.348200 57.887700 41.786300 0
M  V30 18 H 73.536400 59.135700 41.833200 0
M  V30 19 H 73.925000 58.056700 39.580700 0
M  V30 20 H 76.095500 58.059900 41.225100 0
M  V30 21 H 76.077700 56.638000 40.186100 0
M  V30 22 H 71.513000 55.085100 40.102500 0
M  V30 23 H 71.554300 56.788500 39.447900 0
M  V30 24 H 73.672400 56.242500 38.120900 0
M  V30 25 H 73.397600 54.524300 38.642300 0
M  V30 26 R 73.434900 52.973700 42.099100 0
M  V30 END ATOM
M  V30 BEGIN BOND
M  V30 1 1 2 1
M  V30 2 1 3 2
M  V30 3 1 4 3
M  V30 4 1 5 4
M  V30 5 1 6 5
M  V30 6 1 7 3
M  V30 7 1 7 6
M  V30 8 1 8 2
M  V30 9 1 8 6
M  V30 10 1 9 8
M  V30 11 1 10 8
M  V30 12 1 10 9
M  V30 13 1 11 1
M  V30 14 1 12 1
M  V30 15 1 2 13 CFG=3
M  V30 16 1 3 14 CFG=1
M  V30 17 1 15 4
M  V30 18 1 16 4
M  V30 19 1 17 5
M  V30 20 1 18 5
M  V30 21 1 6 19 CFG=3
M  V30 22 1 20 7
M  V30 23 1 21 7
M  V30 24 1 22 9
M  V30 25 1 23 9
M  V30 26 1 24 10
M  V30 27 1 25 10
M  V30 28 1 26 1
M  V30 END BOND
M  V30 END CTAB
M  END
$$$$
R-group 185 (8538-1)
     RDKit          3D

  0  0  0  0  0  0  0  0  0  0999 V3000
M  V30 BEGIN CTAB
M  V30 COUNTS 11 11 0 0 1
M  V30 BEGIN ATOM
M  V30 1 C 73.795800 54.411300 41.744200 0
M  V30 2 C 74.432200 55.305600 42.570400 0
M  V30 3 C 74.346600 56.625300 42.079900 0
M  V30 4 C 73.695400 56.646400 40.882500 0
M  V30 5 N 73.272000 57.658000 40.124500 0
M  V30 6 S 73.272200 55.140900 40.265300 0
M  V30 7 H 74.866700 55.084500 43.533400 0
M  V30 8 H 74.710600 57.483700 42.624500 0
M  V30 9 H 73.495900 58.604400 40.387700 0
M  V30 10 H 73.153100 57.549200 39.121900 0
M  V30 11 R 73.524900 52.976200 41.954500 0
M  V30 END ATOM
M  V30 BEGIN BOND
M  V30 1 2 2 1
M  V30 2 1 3 2
M  V30 3 2 4 3
M  V30 4 1 5 4
M  V30 5 1 6 1
M  V30 6 1 6 4
M  V30 7 1 7 2
M  V30 8 1 8 3
M  V30 9 1 9 5
M  V30 10 1 10 5
M  V30 11 1 11 1
M  V30 END BOND
M  V30 END CTAB
M  END
$$$$
R-group 186 (794-1)
     RDKit          3D

  0  0  0  0  0  0  0  0  0  0999 V3000
M  V30 BEGIN CTAB
M  V30 COUNTS 8 8 0 0 1
M  V30 BEGIN ATOM
M  V30 1 C 74.129800 54.862100 41.812700 0
M  V30 2 N 74.872100 55.451000 42.753300 0
M  V30 3 C 74.917300 56.827100 42.590500 0
M  V30 4 C 74.126200 57.257000 41.569200 0
M  V30 5 S 73.672000 55.967100 40.524700 0
M  V30 6 H 75.427400 57.427300 43.330200 0
M  V30 7 H 73.890300 58.279400 41.324600 0
M  V30 8 R 73.703400 53.431000 41.864400 0
M  V30 END ATOM
M  V30 BEGIN BOND
M  V30 1 2 2 1
M  V30 2 1 3 2
M  V30 3 2 4 3
M  V30 4 1 5 1
M  V30 5 1 5 4
M  V30 6 1 6 3
M  V30 7 1 7 4
M  V30 8 1 8 1
M  V30 END BOND
M  V30 END CTAB
M  END
$$$$
R-group 187 (1469-1)
     RDKit          3D

  0  0  0  0  0  0  0  0  0  0999 V3000
M  V30 BEGIN CTAB
M  V30 COUNTS 10 10 0 0 1
M  V30 BEGIN ATOM
M  V30 1 C 73.713700 54.415000 41.670200 0
M  V30 2 C 74.271100 55.336200 42.524700 0
M  V30 3 N 74.218800 56.627200 42.033000 0
M  V30 4 C 73.674100 56.608500 40.826100 0
M  V30 5 N 73.272100 57.658000 40.125400 0
M  V30 6 S 73.272300 55.112600 40.143700 0
M  V30 7 H 74.644600 55.185000 43.524800 0
M  V30 8 H 73.579000 58.565300 40.444800 0
M  V30 9 H 73.223400 57.581000 39.114500 0
M  V30 10 R 73.474000 52.978300 41.885300 0
M  V30 END ATOM
M  V30 BEGIN BOND
M  V30 1 2 2 1
M  V30 2 1 3 2
M  V30 3 2 4 3
M  V30 4 1 5 4
M  V30 5 1 6 1
M  V30 6 1 6 4
M  V30 7 1 7 2
M  V30 8 1 8 5
M  V30 9 1 9 5
M  V30 10 1 10 1
M  V30 END BOND
M  V30 END CTAB
M  END
$$$$
R-group 188 (14454-1)
     RDKit          3D

  0  0  0  0  0  0  0  0  0  0999 V3000
M  V30 BEGIN CTAB
M  V30 COUNTS 15 15 0 0 1
M  V30 BEGIN ATOM
M  V30 1 C 73.834000 54.687200 41.565400 0
M  V30 2 C 74.861900 55.205900 42.407400 0
M  V30 3 C 75.001800 56.541700 42.364000 0
M  V30 4 C 75.989900 57.289300 43.165700 0
M  V30 5 S 73.811700 57.244800 41.322000 0
M  V30 6 C 73.291600 55.673100 40.761100 0
M  V30 7 C 72.262400 55.604400 39.679800 0
M  V30 8 H 75.490600 54.627100 43.065400 0
M  V30 9 H 76.469900 56.643600 43.898600 0
M  V30 10 H 76.765500 57.728400 42.538100 0
M  V30 11 H 75.481800 58.057500 43.726500 0
M  V30 12 H 72.684100 55.155500 38.781900 0
M  V30 13 H 71.397800 55.023300 39.996700 0
M  V30 14 H 71.908100 56.603100 39.414600 0
M  V30 15 R 73.457600 53.223000 41.614800 0
M  V30 END ATOM
M  V30 BEGIN BOND
M  V30 1 1 2 1
M  V30 2 2 3 2
M  V30 3 1 4 3
M  V30 4 1 5 3
M  V30 5 2 6 1
M  V30 6 1 6 5
M  V30 7 1 7 6
M  V30 8 1 8 2
M  V30 9 1 9 4
M  V30 10 1 10 4
M  V30 11 1 11 4
M  V30 12 1 12 7
M  V30 13 1 13 7
M  V30 14 1 14 7
M  V30 15 1 15 1
M  V30 END BOND
M  V30 END CTAB
M  END
$$$$
R-group 189 (18596-1)
     RDKit          3D

  0  0  0  0  0  0  0  0  0  0999 V3000
M  V30 BEGIN CTAB
M  V30 COUNTS 20 20 0 0 1
M  V30 BEGIN ATOM
M  V30 1 O 73.871100 54.592000 41.692200 0
M  V30 2 C 73.552700 55.441900 42.754200 0
M  V30 3 C 73.988500 56.820300 42.278400 0
M  V30 4 O 73.272400 57.658000 43.125100 0
M  V30 5 C 75.526000 56.979800 42.358100 0
M  V30 6 C 76.009700 57.392800 40.958500 0
M  V30 7 C 74.851700 57.050100 40.011600 0
M  V30 8 C 73.583000 57.205600 40.842300 0
M  V30 9 H 72.475500 55.391200 42.925300 0
M  V30 10 H 74.071200 55.187100 43.689700 0
M  V30 11 H 75.852900 57.658200 43.144100 0
M  V30 12 H 75.990200 56.021400 42.599300 0
M  V30 13 H 76.309900 58.453000 40.925500 0
M  V30 14 H 76.872800 56.811800 40.666000 0
M  V30 15 H 74.838100 57.657900 39.108300 0
M  V30 16 H 74.943100 56.012800 39.698300 0
M  V30 17 H 72.753600 56.613500 40.454800 0
M  V30 18 H 73.271400 58.250700 40.799700 0
M  V30 19 H 73.489400 57.437600 44.017700 0
M  V30 20 R 73.497700 53.255700 41.868600 0
M  V30 END ATOM
M  V30 BEGIN BOND
M  V30 1 1 2 1
M  V30 2 1 3 2
M  V30 3 1 4 3
M  V30 4 1 5 3
M  V30 5 1 6 5
M  V30 6 1 7 6
M  V30 7 1 8 3
M  V30 8 1 8 7
M  V30 9 1 9 2
M  V30 10 1 10 2
M  V30 11 1 11 5
M  V30 12 1 12 5
M  V30 13 1 13 6
M  V30 14 1 14 6
M  V30 15 1 15 7
M  V30 16 1 16 7
M  V30 17 1 17 8
M  V30 18 1 18 8
M  V30 19 1 19 4
M  V30 20 1 20 1
M  V30 END BOND
M  V30 END CTAB
M  END
$$$$
R-group 190 (9953-1)
     RDKit          3D

  0  0  0  0  0  0  0  0  0  0999 V3000
M  V30 BEGIN CTAB
M  V30 COUNTS 21 20 0 0 1
M  V30 BEGIN ATOM
M  V30 1 C 73.380800 57.316900 40.269600 0
M  V30 2 C 73.277100 57.881000 41.699900 0
M  V30 3 C 73.960000 57.078500 42.835200 0
M  V30 4 C 75.490000 57.212900 43.014600 0
M  V30 5 C 76.340700 57.257000 41.737000 0
M  V30 6 C 73.541600 55.621900 42.950100 0
M  V30 7 O 73.894700 54.912200 41.785900 0
M  V30 8 H 73.272400 58.107700 39.528700 0
M  V30 9 H 72.607700 56.569900 40.088800 0
M  V30 10 H 74.338200 56.843300 40.066700 0
M  V30 11 H 73.672800 58.879700 41.725500 0
M  V30 12 H 72.229200 58.058000 41.935900 0
M  V30 13 H 73.545300 57.542000 43.725100 0
M  V30 14 H 75.672100 58.057500 43.671200 0
M  V30 15 H 75.868500 56.383800 43.612400 0
M  V30 16 H 77.376700 57.429100 41.988400 0
M  V30 17 H 76.287500 56.312800 41.195000 0
M  V30 18 H 76.070500 58.057900 41.055600 0
M  V30 19 H 74.072200 55.191000 43.798100 0
M  V30 20 H 72.471800 55.565400 43.136900 0
M  V30 21 R 73.523200 53.548400 41.811600 0
M  V30 END ATOM
M  V30 BEGIN BOND
M  V30 1 1 2 1
M  V30 2 1 3 2
M  V30 3 1 4 3
M  V30 4 1 5 4
M  V30 5 1 6 3
M  V30 6 1 7 6
M  V30 7 1 8 1
M  V30 8 1 9 1
M  V30 9 1 10 1
M  V30 10 1 11 2
M  V30 11 1 12 2
M  V30 12 1 13 3
M  V30 13 1 14 4
M  V30 14 1 15 4
M  V30 15 1 16 5
M  V30 16 1 17 5
M  V30 17 1 18 5
M  V30 18 1 19 6
M  V30 19 1 20 6
M  V30 20 1 21 7
M  V30 END BOND
M  V30 END CTAB
M  END
$$$$
R-group 191 (11278-4)
     RDKit          3D

  0  0  0  0  0  0  0  0  0  0999 V3000
M  V30 BEGIN CTAB
M  V30 COUNTS 19 19 0 0 1
M  V30 BEGIN ATOM
M  V30 1 C 73.654000 54.944200 41.641900 0 CFG=1
M  V30 2 C 73.237900 55.656300 42.934100 0
M  V30 3 C 73.448200 57.149500 42.820100 0
M  V30 4 O 74.831500 57.257800 42.581100 0
M  V30 5 C 75.215900 56.854900 41.284300 0 CFG=1
M  V30 6 C 76.625000 57.376200 41.037300 0
M  V30 7 C 75.113300 55.340800 41.318000 0
M  V30 8 H 73.014100 55.339900 40.851500 0
M  V30 9 H 72.217700 55.433500 43.244900 0
M  V30 10 H 73.898800 55.313600 43.724400 0
M  V30 11 H 72.857500 57.607900 42.025400 0
M  V30 12 H 73.194800 57.652200 43.750700 0
M  V30 13 H 74.550400 57.260200 40.518400 0
M  V30 14 H 77.060500 56.951000 40.137100 0
M  V30 15 H 76.613900 58.457800 40.924800 0
M  V30 16 H 77.272200 57.143000 41.875800 0
M  V30 17 H 75.780000 54.975200 42.093900 0
M  V30 18 H 75.482900 54.945400 40.379600 0
M  V30 19 R 73.410900 53.426100 41.746500 0
M  V30 END ATOM
M  V30 BEGIN BOND
M  V30 1 1 2 1
M  V30 2 1 3 2
M  V30 3 1 4 3
M  V30 4 1 5 4
M  V30 5 1 6 5
M  V30 6 1 7 1
M  V30 7 1 7 5
M  V30 8 1 1 8 CFG=3
M  V30 9 1 9 2
M  V30 10 1 10 2
M  V30 11 1 11 3
M  V30 12 1 12 3
M  V30 13 1 5 13 CFG=3
M  V30 14 1 14 6
M  V30 15 1 15 6
M  V30 16 1 16 6
M  V30 17 1 17 7
M  V30 18 1 18 7
M  V30 19 1 19 1
M  V30 END BOND
M  V30 END CTAB
M  END
$$$$
R-group 192 (35211-1)
     RDKit          3D

  0  0  0  0  0  0  0  0  0  0999 V3000
M  V30 BEGIN CTAB
M  V30 COUNTS 17 17 0 0 1
M  V30 BEGIN ATOM
M  V30 1 O 73.589700 54.818800 42.124600 0
M  V30 2 C 74.718600 55.593200 41.731200 0 CFG=2
M  V30 3 C 75.231000 56.298300 42.965000 0
M  V30 4 C 74.146200 57.344800 43.174600 0
M  V30 5 O 73.670100 57.658300 41.874700 0
M  V30 6 C 74.248900 56.795900 40.908700 0 CFG=2
M  V30 7 C 73.246800 56.561600 39.771400 0
M  V30 8 H 75.504600 55.019300 41.238200 0
M  V30 9 H 75.367200 55.653300 43.829600 0
M  V30 10 H 76.185900 56.782900 42.753900 0
M  V30 11 H 73.302000 56.926300 43.724700 0
M  V30 12 H 74.521700 58.208800 43.723700 0
M  V30 13 H 75.135700 57.276800 40.498200 0
M  V30 14 H 73.698900 56.034000 38.933200 0
M  V30 15 H 72.378700 56.000200 40.113700 0
M  V30 16 H 72.883700 57.512500 39.383800 0
M  V30 17 R 73.576400 53.451400 41.764400 0
M  V30 END ATOM
M  V30 BEGIN BOND
M  V30 1 1 2 1
M  V30 2 1 3 2
M  V30 3 1 4 3
M  V30 4 1 5 4
M  V30 5 1 6 2
M  V30 6 1 6 5
M  V30 7 1 7 6
M  V30 8 1 2 8 CFG=3
M  V30 9 1 9 3
M  V30 10 1 10 3
M  V30 11 1 11 4
M  V30 12 1 12 4
M  V30 13 1 6 13 CFG=3
M  V30 14 1 14 7
M  V30 15 1 15 7
M  V30 16 1 16 7
M  V30 17 1 17 1
M  V30 END BOND
M  V30 END CTAB
M  END
$$$$
R-group 193 (20057-1)
     RDKit          3D

  0  0  0  0  0  0  0  0  0  0999 V3000
M  V30 BEGIN CTAB
M  V30 COUNTS 22 23 0 0 1
M  V30 BEGIN ATOM
M  V30 1 C 73.901800 55.135400 41.665200 0 CFG=2
M  V30 2 C 73.090400 55.758800 40.489400 0
M  V30 3 C 73.116400 57.301300 40.493500 0
M  V30 4 C 74.029900 57.772400 41.635800 0 CFG=1
M  V30 5 C 73.461100 57.302200 42.957200 0
M  V30 6 C 73.419300 55.773300 42.991500 0
M  V30 7 C 75.443100 57.167000 41.441900 0
M  V30 8 C 75.369900 55.618200 41.474200 0
M  V30 9 H 73.497700 55.428400 39.533600 0
M  V30 10 H 72.072200 55.384800 40.519200 0
M  V30 11 H 73.489800 57.668000 39.536400 0
M  V30 12 H 72.104400 57.703200 40.592800 0
M  V30 13 H 74.047500 58.850300 41.724400 0
M  V30 14 H 74.121000 57.680400 43.724400 0
M  V30 15 H 72.476700 57.734600 43.137500 0
M  V30 16 H 72.406600 55.466000 43.246500 0
M  V30 17 H 74.072600 55.442500 43.799500 0
M  V30 18 H 75.875300 57.499800 40.496900 0
M  V30 19 H 76.121600 57.515900 42.222400 0
M  V30 20 H 75.995900 55.261600 42.287600 0
M  V30 21 H 75.811200 55.224400 40.562100 0
M  V30 22 R 73.688200 53.577400 41.755200 0
M  V30 END ATOM
M  V30 BEGIN BOND
M  V30 1 1 2 1
M  V30 2 1 3 2
M  V30 3 1 4 3
M  V30 4 1 5 4
M  V30 5 1 6 1
M  V30 6 1 6 5
M  V30 7 1 7 4
M  V30 8 1 8 1
M  V30 9 1 8 7
M  V30 10 1 9 2
M  V30 11 1 10 2
M  V30 12 1 11 3
M  V30 13 1 12 3
M  V30 14 1 4 13 CFG=1
M  V30 15 1 14 5
M  V30 16 1 15 5
M  V30 17 1 16 6
M  V30 18 1 17 6
M  V30 19 1 18 7
M  V30 20 1 19 7
M  V30 21 1 20 8
M  V30 22 1 21 8
M  V30 23 1 1 22 CFG=1
M  V30 END BOND
M  V30 END CTAB
M  END
$$$$
R-group 194 (7506-4)
     RDKit          3D

  0  0  0  0  0  0  0  0  0  0999 V3000
M  V30 BEGIN CTAB
M  V30 COUNTS 13 13 0 0 1
M  V30 BEGIN ATOM
M  V30 1 N 73.979100 55.058900 42.524000 0
M  V30 2 C 74.761900 56.096200 42.183400 0
M  V30 3 O 75.672200 56.057700 41.359600 0
M  V30 4 C 74.375800 57.365300 42.858700 0 CFG=2
M  V30 5 C 72.973900 57.489900 43.426300 0
M  V30 6 C 73.325700 58.179300 42.127200 0 CFG=2
M  V30 7 F 72.872400 57.658700 40.925300 0
M  V30 8 H 75.159000 57.870600 43.417400 0
M  V30 9 H 72.389100 56.579000 43.466800 0
M  V30 10 H 72.872500 58.108200 44.309300 0
M  V30 11 H 73.293900 59.258000 42.124700 0
M  V30 12 H 73.319000 55.251600 43.268500 0
M  V30 13 R 73.814800 53.728400 41.956500 0
M  V30 END ATOM
M  V30 BEGIN BOND
M  V30 1 1 2 1
M  V30 2 2 3 2
M  V30 3 1 4 2
M  V30 4 1 5 4
M  V30 5 1 6 4
M  V30 6 1 6 5
M  V30 7 1 7 6
M  V30 8 1 4 8 CFG=1
M  V30 9 1 9 5
M  V30 10 1 10 5
M  V30 11 1 6 11 CFG=1
M  V30 12 1 12 1
M  V30 13 1 13 1
M  V30 END BOND
M  V30 END CTAB
M  END
$$$$
R-group 195 (4383-1)
     RDKit          3D

  0  0  0  0  0  0  0  0  0  0999 V3000
M  V30 BEGIN CTAB
M  V30 COUNTS 11 10 0 0 1
M  V30 BEGIN ATOM
M  V30 1 C 74.072200 57.977700 43.072400 0
M  V30 2 N 73.659200 56.616800 42.922500 0
M  V30 3 C 74.172500 55.702800 42.116800 0
M  V30 4 O 75.202500 55.831300 41.461100 0
M  V30 5 N 73.375300 54.635400 42.151200 0
M  V30 6 H 73.345200 58.458000 43.729500 0
M  V30 7 H 75.065900 58.027500 43.531500 0
M  V30 8 H 74.072000 58.459800 42.097900 0
M  V30 9 H 72.854700 56.352200 43.470300 0
M  V30 10 H 72.577900 54.707200 42.770000 0
M  V30 11 R 73.582400 53.317200 41.634200 0
M  V30 END ATOM
M  V30 BEGIN BOND
M  V30 1 1 2 1
M  V30 2 1 3 2
M  V30 3 2 4 3
M  V30 4 1 5 3
M  V30 5 1 6 1
M  V30 6 1 7 1
M  V30 7 1 8 1
M  V30 8 1 9 2
M  V30 9 1 10 5
M  V30 10 1 11 5
M  V30 END BOND
M  V30 END CTAB
M  END
$$$$
R-group 196 (1359-1)
     RDKit          3D

  0  0  0  0  0  0  0  0  0  0999 V3000
M  V30 BEGIN CTAB
M  V30 COUNTS 12 12 0 0 1
M  V30 BEGIN ATOM
M  V30 1 C 73.718600 55.240800 42.202100 0 CFG=2
M  V30 2 C 73.786200 56.356500 41.173200 0
M  V30 3 C 75.038900 55.921100 41.889200 0 CFG=1
M  V30 4 C 75.693800 56.840300 42.897400 0
M  V30 5 H 73.293600 55.521000 43.165400 0
M  V30 6 H 73.732400 56.128300 40.111600 0
M  V30 7 H 73.349200 57.313200 41.452000 0
M  V30 8 H 75.753600 55.334600 41.317900 0
M  V30 9 H 74.960200 57.523800 43.324700 0
M  V30 10 H 76.141600 56.256800 43.701400 0
M  V30 11 H 76.472900 57.429100 42.415500 0
M  V30 12 R 73.460500 53.766900 41.852500 0
M  V30 END ATOM
M  V30 BEGIN BOND
M  V30 1 1 2 1
M  V30 2 1 3 1
M  V30 3 1 3 2
M  V30 4 1 4 3
M  V30 5 1 1 5 CFG=1
M  V30 6 1 6 2
M  V30 7 1 7 2
M  V30 8 1 3 8 CFG=3
M  V30 9 1 9 4
M  V30 10 1 10 4
M  V30 11 1 11 4
M  V30 12 1 12 1
M  V30 END BOND
M  V30 END CTAB
M  END
$$$$
R-group 197 (28055-3)
     RDKit          3D

  0  0  0  0  0  0  0  0  0  0999 V3000
M  V30 BEGIN CTAB
M  V30 COUNTS 16 16 0 0 1
M  V30 BEGIN ATOM
M  V30 1 C 74.236300 54.886900 41.542000 0 CFG=1
M  V30 2 C 73.534800 55.787200 40.519200 0
M  V30 3 C 73.833000 57.223500 40.932500 0
M  V30 4 C 74.497000 57.150400 42.314400 0
M  V30 5 C 74.263900 55.722200 42.804500 0 CFG=2
M  V30 6 C 75.272500 55.258000 43.759400 0
M  V30 7 N 76.069000 54.907600 44.524800 0
M  V30 8 H 75.275800 54.797700 41.218000 0
M  V30 9 H 72.467800 55.609400 40.526600 0
M  V30 10 H 73.878000 55.601600 39.501500 0
M  V30 11 H 72.921700 57.826700 40.954000 0
M  V30 12 H 74.507600 57.658000 40.198100 0
M  V30 13 H 75.572800 57.337500 42.216500 0
M  V30 14 H 74.091000 57.892200 43.009700 0
M  V30 15 H 73.294500 55.665900 43.300000 0
M  V30 16 R 73.640100 53.466800 41.735100 0
M  V30 END ATOM
M  V30 BEGIN BOND
M  V30 1 1 2 1
M  V30 2 1 3 2
M  V30 3 1 4 3
M  V30 4 1 5 1
M  V30 5 1 5 4
M  V30 6 1 6 5
M  V30 7 3 7 6
M  V30 8 1 1 8 CFG=3
M  V30 9 1 9 2
M  V30 10 1 10 2
M  V30 11 1 11 3
M  V30 12 1 12 3
M  V30 13 1 13 4
M  V30 14 1 14 4
M  V30 15 1 5 15 CFG=1
M  V30 16 1 16 1
M  V30 END BOND
M  V30 END CTAB
M  END
$$$$
R-group 198 (2308-1)
     RDKit          3D

  0  0  0  0  0  0  0  0  0  0999 V3000
M  V30 BEGIN CTAB
M  V30 COUNTS 13 13 0 0 1
M  V30 BEGIN ATOM
M  V30 1 C 73.611500 55.179500 42.211200 0
M  V30 2 C 75.032500 55.710300 42.146800 0
M  V30 3 C 75.698500 56.028100 40.812600 0
M  V30 4 O 76.236600 57.257900 41.325800 0
M  V30 5 C 75.331000 57.171900 42.452600 0
M  V30 6 H 72.985700 55.776200 41.553300 0
M  V30 7 H 73.232900 55.363300 43.217800 0
M  V30 8 H 75.676500 55.113400 42.777600 0
M  V30 9 H 76.471200 55.322100 40.524200 0
M  V30 10 H 74.998900 56.215000 39.998700 0
M  V30 11 H 74.466200 57.825200 42.331600 0
M  V30 12 H 75.826200 57.334000 43.411500 0
M  V30 13 R 73.434000 53.672800 41.875100 0
M  V30 END ATOM
M  V30 BEGIN BOND
M  V30 1 1 2 1
M  V30 2 1 3 2
M  V30 3 1 4 3
M  V30 4 1 5 2
M  V30 5 1 5 4
M  V30 6 1 6 1
M  V30 7 1 7 1
M  V30 8 1 8 2
M  V30 9 1 9 3
M  V30 10 1 10 3
M  V30 11 1 11 5
M  V30 12 1 12 5
M  V30 13 1 13 1
M  V30 END BOND
M  V30 END CTAB
M  END
$$$$
R-group 199 (5495-1)
     RDKit          3D

  0  0  0  0  0  0  0  0  0  0999 V3000
M  V30 BEGIN CTAB
M  V30 COUNTS 12 12 0 0 1
M  V30 BEGIN ATOM
M  V30 1 C 73.126400 54.415700 42.267400 0
M  V30 2 C 73.977800 55.478400 41.634900 0
M  V30 3 C 75.164800 56.039800 42.181600 0
M  V30 4 C 75.673800 56.856900 41.221000 0
M  V30 5 O 74.872700 56.857900 40.125800 0
M  V30 6 C 73.810000 56.085500 40.421800 0
M  V30 7 H 72.063400 54.482100 42.063200 0
M  V30 8 H 73.277300 54.555700 43.324600 0
M  V30 9 H 75.612000 55.828300 43.142800 0
M  V30 10 H 76.559500 57.467600 41.140400 0
M  V30 11 H 73.075700 56.012300 39.635700 0
M  V30 12 R 73.471700 53.009000 41.801000 0
M  V30 END ATOM
M  V30 BEGIN BOND
M  V30 1 1 2 1
M  V30 2 1 3 2
M  V30 3 2 4 3
M  V30 4 1 5 4
M  V30 5 2 6 2
M  V30 6 1 6 5
M  V30 7 1 7 1
M  V30 8 1 8 1
M  V30 9 1 9 3
M  V30 10 1 10 4
M  V30 11 1 11 6
M  V30 12 1 12 1
M  V30 END BOND
M  V30 END CTAB
M  END
$$$$
R-group 200 (28055-4)
     RDKit          3D

  0  0  0  0  0  0  0  0  0  0999 V3000
M  V30 BEGIN CTAB
M  V30 COUNTS 16 16 0 0 1
M  V30 BEGIN ATOM
M  V30 1 C 74.120700 55.102500 41.550900 0 CFG=2
M  V30 2 C 73.580600 55.927800 42.733200 0
M  V30 3 C 73.521500 57.383200 42.261800 0
M  V30 4 C 74.026600 57.374500 40.817600 0
M  V30 5 C 73.822900 55.957600 40.288600 0 CFG=2
M  V30 6 C 72.470000 55.805300 39.724600 0
M  V30 7 N 71.391500 55.678900 39.324700 0
M  V30 8 H 75.209700 55.117700 41.631300 0
M  V30 9 H 74.207600 55.805500 43.616200 0
M  V30 10 H 72.580500 55.608400 43.019500 0
M  V30 11 H 74.120700 58.041800 42.889600 0
M  V30 12 H 72.495200 57.748400 42.302200 0
M  V30 13 H 73.505700 58.099100 40.194100 0
M  V30 14 H 75.088600 57.633900 40.822900 0
M  V30 15 H 74.521900 55.766600 39.477800 0
M  V30 16 R 73.672100 53.609600 41.610300 0
M  V30 END ATOM
M  V30 BEGIN BOND
M  V30 1 1 2 1
M  V30 2 1 3 2
M  V30 3 1 4 3
M  V30 4 1 5 1
M  V30 5 1 5 4
M  V30 6 1 6 5
M  V30 7 3 7 6
M  V30 8 1 1 8 CFG=1
M  V30 9 1 9 2
M  V30 10 1 10 2
M  V30 11 1 11 3
M  V30 12 1 12 3
M  V30 13 1 13 4
M  V30 14 1 14 4
M  V30 15 1 5 15 CFG=3
M  V30 16 1 16 1
M  V30 END BOND
M  V30 END CTAB
M  END
$$$$
R-group 201 (8027-1)
     RDKit          3D

  0  0  0  0  0  0  0  0  0  0999 V3000
M  V30 BEGIN CTAB
M  V30 COUNTS 10 10 0 0 1
M  V30 BEGIN ATOM
M  V30 1 C 73.892100 55.085400 41.725200 0
M  V30 2 C 74.072500 55.938700 42.842400 0
M  V30 3 N 74.072200 57.217700 42.525300 0
M  V30 4 O 73.953600 57.256900 41.143900 0
M  V30 5 C 73.855300 55.992300 40.690000 0
M  V30 6 N 73.671800 55.901600 39.324500 0
M  V30 7 H 74.124900 55.657800 43.882700 0
M  V30 8 H 73.578900 55.023300 38.834500 0
M  V30 9 H 73.670200 56.724200 38.733200 0
M  V30 10 R 73.648800 53.584400 41.783600 0
M  V30 END ATOM
M  V30 BEGIN BOND
M  V30 1 1 2 1
M  V30 2 2 3 2
M  V30 3 1 4 3
M  V30 4 2 5 1
M  V30 5 1 5 4
M  V30 6 1 6 5
M  V30 7 1 7 2
M  V30 8 1 8 6
M  V30 9 1 9 6
M  V30 10 1 10 1
M  V30 END BOND
M  V30 END CTAB
M  END
$$$$
R-group 202 (41904-4)
     RDKit          3D

  0  0  0  0  0  0  0  0  0  0999 V3000
M  V30 BEGIN CTAB
M  V30 COUNTS 16 16 0 0 1
M  V30 BEGIN ATOM
M  V30 1 C 73.725000 56.811200 39.176400 0
M  V30 2 O 73.272500 56.732900 40.516900 0
M  V30 3 C 74.330900 56.711300 41.455300 0 CFG=1
M  V30 4 C 73.882700 57.017200 42.882700 0
M  V30 5 C 74.993600 56.060200 43.320200 0
M  V30 6 C 74.834100 55.338800 41.974800 0 CFG=1
M  V30 7 H 72.855700 56.858100 38.526100 0
M  V30 8 H 74.319200 57.706100 38.989100 0
M  V30 9 H 74.319700 55.941400 38.898900 0
M  V30 10 H 75.153300 57.373800 41.174500 0
M  V30 11 H 74.014400 58.054400 43.193800 0
M  V30 12 H 72.885000 56.641100 43.114900 0
M  V30 13 H 74.739700 55.444300 44.171900 0
M  V30 14 H 75.962600 56.551300 43.439600 0
M  V30 15 H 75.826300 55.172200 41.558600 0
M  V30 16 R 74.006200 54.017300 41.976400 0
M  V30 END ATOM
M  V30 BEGIN BOND
M  V30 1 1 2 1
M  V30 2 1 3 2
M  V30 3 1 4 3
M  V30 4 1 5 4
M  V30 5 1 6 3
M  V30 6 1 6 5
M  V30 7 1 7 1
M  V30 8 1 8 1
M  V30 9 1 9 1
M  V30 10 1 3 10 CFG=3
M  V30 11 1 11 4
M  V30 12 1 12 4
M  V30 13 1 13 5
M  V30 14 1 14 5
M  V30 15 1 6 15 CFG=3
M  V30 16 1 16 6
M  V30 END BOND
M  V30 END CTAB
M  END
$$$$
R-group 203 (16826-1)
     RDKit          3D

  0  0  0  0  0  0  0  0  0  0999 V3000
M  V30 BEGIN CTAB
M  V30 COUNTS 16 16 0 0 1
M  V30 BEGIN ATOM
M  V30 1 C 73.672200 54.660300 41.546500 0
M  V30 2 O 73.274000 55.259100 40.542400 0
M  V30 3 N 74.380900 55.232400 42.512500 0
M  V30 4 C 74.814000 56.559100 42.530900 0
M  V30 5 C 73.638100 57.493500 42.682300 0
M  V30 6 C 76.070800 56.777800 43.312000 0
M  V30 7 C 76.084700 56.910800 41.796700 0
M  V30 8 H 74.030400 58.460500 42.927500 0
M  V30 9 H 73.080200 57.578100 41.746300 0
M  V30 10 H 72.973300 57.179400 43.485100 0
M  V30 11 H 76.070600 57.655900 43.930600 0
M  V30 12 H 76.482400 55.892700 43.782600 0
M  V30 13 H 76.524400 56.108200 41.220200 0
M  V30 14 H 76.143400 57.898300 41.329800 0
M  V30 15 H 74.605800 54.673300 43.319700 0
M  V30 16 R 73.421400 53.171100 41.748300 0
M  V30 END ATOM
M  V30 BEGIN BOND
M  V30 1 2 2 1
M  V30 2 1 3 1
M  V30 3 1 4 3
M  V30 4 1 5 4
M  V30 5 1 6 4
M  V30 6 1 7 4
M  V30 7 1 7 6
M  V30 8 1 8 5
M  V30 9 1 9 5
M  V30 10 1 10 5
M  V30 11 1 11 6
M  V30 12 1 12 6
M  V30 13 1 13 7
M  V30 14 1 14 7
M  V30 15 1 15 3
M  V30 16 1 16 1
M  V30 END BOND
M  V30 END CTAB
M  END
$$$$
R-group 204 (1212-1)
     RDKit          3D

  0  0  0  0  0  0  0  0  0  0999 V3000
M  V30 BEGIN CTAB
M  V30 COUNTS 14 14 0 0 1
M  V30 BEGIN ATOM
M  V30 1 C 72.658600 54.245400 42.004700 0
M  V30 2 C 73.678700 55.349000 41.871000 0
M  V30 3 C 74.577200 55.630800 42.913500 0
M  V30 4 C 75.672100 56.457800 42.625000 0
M  V30 5 C 75.813200 56.959600 41.325700 0
M  V30 6 N 74.871500 56.835500 40.373700 0
M  V30 7 C 73.826100 56.034300 40.644700 0
M  V30 8 H 71.813600 54.440500 41.343000 0
M  V30 9 H 72.215600 54.220600 42.986400 0
M  V30 10 H 74.475700 55.170400 43.886000 0
M  V30 11 H 76.464400 56.637000 43.345600 0
M  V30 12 H 76.668400 57.563800 41.063600 0
M  V30 13 H 73.138200 55.867100 39.828800 0
M  V30 14 R 73.250300 52.875300 41.621500 0
M  V30 END ATOM
M  V30 BEGIN BOND
M  V30 1 1 2 1
M  V30 2 2 3 2
M  V30 3 1 4 3
M  V30 4 2 5 4
M  V30 5 1 6 5
M  V30 6 1 7 2
M  V30 7 2 7 6
M  V30 8 1 8 1
M  V30 9 1 9 1
M  V30 10 1 10 3
M  V30 11 1 11 4
M  V30 12 1 12 5
M  V30 13 1 13 7
M  V30 14 1 14 1
M  V30 END BOND
M  V30 END CTAB
M  END
$$$$
R-group 205 (17967-2)
     RDKit          3D

  0  0  0  0  0  0  0  0  0  0999 V3000
M  V30 BEGIN CTAB
M  V30 COUNTS 7 6 0 0 1
M  V30 BEGIN ATOM
M  V30 1 C 74.301100 55.242300 41.715700 0 CFG=2
M  V30 2 O 74.168000 55.948700 42.924700 0
M  V30 3 C 73.725300 56.015500 40.601800 0
M  V30 4 N 73.273000 56.617700 39.725100 0
M  V30 5 H 75.366500 55.196500 41.487000 0
M  V30 6 H 73.506300 55.527600 43.461900 0
M  V30 7 R 73.755200 53.796900 41.867700 0
M  V30 END ATOM
M  V30 BEGIN BOND
M  V30 1 1 2 1
M  V30 2 1 3 1
M  V30 3 3 4 3
M  V30 4 1 1 5 CFG=3
M  V30 5 1 6 2
M  V30 6 1 7 1
M  V30 END BOND
M  V30 END CTAB
M  END
$$$$
R-group 206 (19167-1)
     RDKit          3D

  0  0  0  0  0  0  0  0  0  0999 V3000
M  V30 BEGIN CTAB
M  V30 COUNTS 13 13 0 0 1
M  V30 BEGIN ATOM
M  V30 1 C 73.934600 55.203500 41.705200 0 CFG=1
M  V30 2 C 75.407300 55.562500 42.007800 0
M  V30 3 C 75.766300 56.760100 41.129500 0
M  V30 4 N 74.680100 56.854900 40.182100 0
M  V30 5 C 73.672500 56.036600 40.431100 0
M  V30 6 O 72.668100 55.977100 39.724700 0
M  V30 7 H 73.327000 55.670000 42.481700 0
M  V30 8 H 75.570400 55.768200 43.067900 0
M  V30 9 H 76.071700 54.758600 41.724800 0
M  V30 10 H 76.717400 56.628500 40.616100 0
M  V30 11 H 75.825400 57.658000 41.732200 0
M  V30 12 H 74.691800 57.481100 39.387700 0
M  V30 13 R 73.575900 53.665200 41.689900 0
M  V30 END ATOM
M  V30 BEGIN BOND
M  V30 1 1 2 1
M  V30 2 1 3 2
M  V30 3 1 4 3
M  V30 4 1 5 1
M  V30 5 1 5 4
M  V30 6 2 6 5
M  V30 7 1 1 7 CFG=1
M  V30 8 1 8 2
M  V30 9 1 9 2
M  V30 10 1 10 3
M  V30 11 1 11 3
M  V30 12 1 12 4
M  V30 13 1 13 1
M  V30 END BOND
M  V30 END CTAB
M  END
$$$$
R-group 207 (31480-2)
     RDKit          3D

  0  0  0  0  0  0  0  0  0  0999 V3000
M  V30 BEGIN CTAB
M  V30 COUNTS 13 13 0 0 1
M  V30 BEGIN ATOM
M  V30 1 C 73.767400 55.220700 42.041800 0 CFG=2
M  V30 2 C 73.272500 56.349000 41.103500 0
M  V30 3 C 74.703600 56.618600 40.657700 0
M  V30 4 C 75.177000 55.791200 41.843500 0 CFG=1
M  V30 5 O 75.672200 56.526500 42.924700 0
M  V30 6 H 73.439200 55.469400 43.053400 0
M  V30 7 H 72.604700 56.080300 40.287900 0
M  V30 8 H 72.872600 57.198800 41.659500 0
M  V30 9 H 75.008700 57.655500 40.733300 0
M  V30 10 H 74.945800 56.201400 39.682900 0
M  V30 11 H 75.917300 55.050900 41.546400 0
M  V30 12 H 75.027900 57.185800 43.132400 0
M  V30 13 R 73.499500 53.719300 41.799700 0
M  V30 END ATOM
M  V30 BEGIN BOND
M  V30 1 1 2 1
M  V30 2 1 3 2
M  V30 3 1 4 1
M  V30 4 1 4 3
M  V30 5 1 5 4
M  V30 6 1 1 6 CFG=1
M  V30 7 1 7 2
M  V30 8 1 8 2
M  V30 9 1 9 3
M  V30 10 1 10 3
M  V30 11 1 4 11 CFG=3
M  V30 12 1 12 5
M  V30 13 1 13 1
M  V30 END BOND
M  V30 END CTAB
M  END
$$$$
R-group 208 (9971-1)
     RDKit          3D

  0  0  0  0  0  0  0  0  0  0999 V3000
M  V30 BEGIN CTAB
M  V30 COUNTS 9 9 0 0 1
M  V30 BEGIN ATOM
M  V30 1 C 74.229300 54.930100 41.726300 0
M  V30 2 C 75.232500 55.452400 40.954800 0
M  V30 3 C 75.484800 56.718000 41.503300 0
M  V30 4 F 76.472100 57.546800 41.095900 0
M  V30 5 C 74.605300 56.915900 42.522300 0
M  V30 6 O 73.812400 55.830500 42.657200 0
M  V30 7 H 75.802400 54.974500 40.177400 0
M  V30 8 H 74.428200 57.717200 43.223800 0
M  V30 9 R 73.635400 53.572900 41.838500 0
M  V30 END ATOM
M  V30 BEGIN BOND
M  V30 1 2 2 1
M  V30 2 1 3 2
M  V30 3 1 4 3
M  V30 4 2 5 3
M  V30 5 1 6 1
M  V30 6 1 6 5
M  V30 7 1 7 2
M  V30 8 1 8 5
M  V30 9 1 9 1
M  V30 END BOND
M  V30 END CTAB
M  END
$$$$
R-group 209 (23856-1)
     RDKit          3D

  0  0  0  0  0  0  0  0  0  0999 V3000
M  V30 BEGIN CTAB
M  V30 COUNTS 16 16 0 0 1
M  V30 BEGIN ATOM
M  V30 1 O 73.677900 54.931100 42.127600 0
M  V30 2 C 74.986600 55.470000 41.974400 0
M  V30 3 C 74.910400 56.853100 41.359200 0
M  V30 4 C 76.327300 57.412100 41.219200 0
M  V30 5 C 73.856600 57.112800 40.288800 0
M  V30 6 C 73.687000 57.715900 41.656900 0
M  V30 7 H 75.453000 55.529200 42.960000 0
M  V30 8 H 75.634300 54.859200 41.350600 0
M  V30 9 H 76.374200 58.455800 40.924800 0
M  V30 10 H 76.863800 57.328700 42.164100 0
M  V30 11 H 76.876100 56.841000 40.471400 0
M  V30 12 H 74.072900 57.790200 39.464900 0
M  V30 13 H 73.188900 56.297600 40.019700 0
M  V30 14 H 72.910000 57.293800 42.291100 0
M  V30 15 H 73.760400 58.795800 41.726800 0
M  V30 16 R 73.499200 53.531800 41.961300 0
M  V30 END ATOM
M  V30 BEGIN BOND
M  V30 1 1 2 1
M  V30 2 1 3 2
M  V30 3 1 4 3
M  V30 4 1 5 3
M  V30 5 1 6 3
M  V30 6 1 6 5
M  V30 7 1 7 2
M  V30 8 1 8 2
M  V30 9 1 9 4
M  V30 10 1 10 4
M  V30 11 1 11 4
M  V30 12 1 12 5
M  V30 13 1 13 5
M  V30 14 1 14 6
M  V30 15 1 15 6
M  V30 16 1 16 1
M  V30 END BOND
M  V30 END CTAB
M  END
$$$$
R-group 210 (35201-1)
     RDKit          3D

  0  0  0  0  0  0  0  0  0  0999 V3000
M  V30 BEGIN CTAB
M  V30 COUNTS 12 12 0 0 1
M  V30 BEGIN ATOM
M  V30 1 C 73.793200 55.060600 41.354000 0 CFG=2
M  V30 2 C 74.941000 55.435400 40.396700 0
M  V30 3 N 75.647100 56.455700 41.125100 0
M  V30 4 C 75.301600 56.427300 42.404500 0
M  V30 5 O 75.973400 56.858000 43.318500 0
M  V30 6 N 74.128600 55.819900 42.525600 0
M  V30 7 H 72.872600 55.477300 40.950300 0
M  V30 8 H 75.652800 54.628900 40.236900 0
M  V30 9 H 74.578800 55.807300 39.436900 0
M  V30 10 H 76.525100 56.836600 40.806800 0
M  V30 11 H 73.667600 55.673700 43.414900 0
M  V30 12 R 73.577600 53.560700 41.688800 0
M  V30 END ATOM
M  V30 BEGIN BOND
M  V30 1 1 2 1
M  V30 2 1 3 2
M  V30 3 1 4 3
M  V30 4 2 5 4
M  V30 5 1 6 1
M  V30 6 1 6 4
M  V30 7 1 1 7 CFG=3
M  V30 8 1 8 2
M  V30 9 1 9 2
M  V30 10 1 10 3
M  V30 11 1 11 6
M  V30 12 1 12 1
M  V30 END BOND
M  V30 END CTAB
M  END
$$$$
R-group 211 (29312-6)
     RDKit          3D

  0  0  0  0  0  0  0  0  0  0999 V3000
M  V30 BEGIN CTAB
M  V30 COUNTS 22 22 0 0 1
M  V30 BEGIN ATOM
M  V30 1 C 74.012400 54.737700 41.743100 0 CFG=1
M  V30 2 C 73.429800 55.464300 40.521500 0
M  V30 3 C 73.942500 56.887400 40.414300 0 CFG=1
M  V30 4 C 73.276500 57.433100 39.181800 0
M  V30 5 C 73.639500 57.662900 41.699500 0
M  V30 6 C 74.253700 56.961600 42.899900 0 CFG=2
M  V30 7 O 75.671300 56.858000 42.877200 0
M  V30 8 C 73.710400 55.551300 43.013300 0
M  V30 9 H 75.092700 54.742400 41.588200 0
M  V30 10 H 73.696600 54.993300 39.585300 0
M  V30 11 H 72.344900 55.422600 40.525100 0
M  V30 12 H 75.019400 56.880600 40.247000 0
M  V30 13 H 72.200500 57.255800 39.226800 0
M  V30 14 H 73.495000 58.491400 39.028800 0
M  V30 15 H 73.630600 56.857900 38.324900 0
M  V30 16 H 73.989300 58.683900 41.722100 0
M  V30 17 H 72.561400 57.726500 41.835100 0
M  V30 18 H 73.944500 57.578800 43.724600 0
M  V30 19 H 72.635200 55.602000 43.193500 0
M  V30 20 H 74.160800 55.095100 43.886900 0
M  V30 21 H 76.043100 57.672000 43.184700 0
M  V30 22 R 73.583100 53.262000 41.860100 0
M  V30 END ATOM
M  V30 BEGIN BOND
M  V30 1 1 2 1
M  V30 2 1 3 2
M  V30 3 1 4 3
M  V30 4 1 5 3
M  V30 5 1 6 5
M  V30 6 1 7 6
M  V30 7 1 8 1
M  V30 8 1 8 6
M  V30 9 1 1 9 CFG=3
M  V30 10 1 10 2
M  V30 11 1 11 2
M  V30 12 1 3 12 CFG=3
M  V30 13 1 13 4
M  V30 14 1 14 4
M  V30 15 1 15 4
M  V30 16 1 16 5
M  V30 17 1 17 5
M  V30 18 1 6 18 CFG=1
M  V30 19 1 19 8
M  V30 20 1 20 8
M  V30 21 1 21 7
M  V30 22 1 22 1
M  V30 END BOND
M  V30 END CTAB
M  END
$$$$
R-group 212 (9965-1)
     RDKit          3D

  0  0  0  0  0  0  0  0  0  0999 V3000
M  V30 BEGIN CTAB
M  V30 COUNTS 13 13 0 0 1
M  V30 BEGIN ATOM
M  V30 1 C 73.290800 57.181300 39.405100 0
M  V30 2 O 73.404600 55.897600 39.994400 0
M  V30 3 C 74.089700 55.866300 41.186200 0
M  V30 4 C 74.948100 56.858100 41.724100 0
M  V30 5 C 75.393500 56.416500 42.924200 0
M  V30 6 O 74.873900 55.202600 43.179100 0
M  V30 7 C 74.151400 54.833500 42.084300 0
M  V30 8 H 72.643800 57.132300 38.527000 0
M  V30 9 H 72.866100 57.894100 40.116700 0
M  V30 10 H 74.263600 57.545600 39.075900 0
M  V30 11 H 75.206800 57.819200 41.323800 0
M  V30 12 H 76.037400 56.827500 43.691300 0
M  V30 13 R 73.683500 53.411300 42.083700 0
M  V30 END ATOM
M  V30 BEGIN BOND
M  V30 1 1 2 1
M  V30 2 1 3 2
M  V30 3 1 4 3
M  V30 4 2 5 4
M  V30 5 1 6 5
M  V30 6 2 7 3
M  V30 7 1 7 6
M  V30 8 1 8 1
M  V30 9 1 9 1
M  V30 10 1 10 1
M  V30 11 1 11 4
M  V30 12 1 12 5
M  V30 13 1 13 7
M  V30 END BOND
M  V30 END CTAB
M  END
$$$$
R-group 213 (8232-2)
     RDKit          3D

  0  0  0  0  0  0  0  0  0  0999 V3000
M  V30 BEGIN CTAB
M  V30 COUNTS 16 16 0 0 1
M  V30 BEGIN ATOM
M  V30 1 C 73.987600 55.137700 41.492300 0 CFG=1
M  V30 2 O 73.272400 55.732600 40.421000 0
M  V30 3 C 75.457100 55.466700 41.204300 0
M  V30 4 C 75.661900 56.924300 41.620200 0
M  V30 5 C 74.472000 57.257700 42.531700 0
M  V30 6 F 73.674000 58.138600 41.927100 0
M  V30 7 F 74.907000 57.785900 43.679300 0
M  V30 8 C 73.715000 55.956200 42.762300 0
M  V30 9 H 76.072100 54.856500 41.847800 0
M  V30 10 H 75.774100 55.299300 40.178400 0
M  V30 11 H 75.679600 57.575700 40.746500 0
M  V30 12 H 76.618200 57.046800 42.129700 0
M  V30 13 H 72.660500 56.118200 42.974800 0
M  V30 14 H 74.132300 55.458300 43.638200 0
M  V30 15 H 73.481600 55.272800 39.624100 0
M  V30 16 R 73.592800 53.627700 41.650000 0
M  V30 END ATOM
M  V30 BEGIN BOND
M  V30 1 1 2 1
M  V30 2 1 3 1
M  V30 3 1 4 3
M  V30 4 1 5 4
M  V30 5 1 6 5
M  V30 6 1 7 5
M  V30 7 1 8 1
M  V30 8 1 8 5
M  V30 9 1 9 3
M  V30 10 1 10 3
M  V30 11 1 11 4
M  V30 12 1 12 4
M  V30 13 1 13 8
M  V30 14 1 14 8
M  V30 15 1 15 2
M  V30 16 1 1 16 CFG=1
M  V30 END BOND
M  V30 END CTAB
M  END
$$$$
R-group 214 (10823-2)
     RDKit          3D

  0  0  0  0  0  0  0  0  0  0999 V3000
M  V30 BEGIN CTAB
M  V30 COUNTS 10 10 0 0 1
M  V30 BEGIN ATOM
M  V30 1 C 74.470200 55.267300 41.733700 0 CFG=2
M  V30 2 C 74.446200 56.198600 42.938100 0
M  V30 3 C 73.807100 57.203600 41.997300 0
M  V30 4 O 73.672300 56.202600 40.959700 0
M  V30 5 H 75.480000 55.228400 41.320500 0
M  V30 6 H 73.770800 55.867000 43.724200 0
M  V30 7 H 75.429500 56.485000 43.310000 0
M  V30 8 H 72.848300 57.583000 42.346600 0
M  V30 9 H 74.472400 58.017300 41.712200 0
M  V30 10 R 73.826300 53.871700 41.823900 0
M  V30 END ATOM
M  V30 BEGIN BOND
M  V30 1 1 2 1
M  V30 2 1 3 2
M  V30 3 1 4 1
M  V30 4 1 4 3
M  V30 5 1 1 5 CFG=3
M  V30 6 1 6 2
M  V30 7 1 7 2
M  V30 8 1 8 3
M  V30 9 1 9 3
M  V30 10 1 10 1
M  V30 END BOND
M  V30 END CTAB
M  END
$$$$
R-group 215 (5834-1)
     RDKit          3D

  0  0  0  0  0  0  0  0  0  0999 V3000
M  V30 BEGIN CTAB
M  V30 COUNTS 16 16 0 0 1
M  V30 BEGIN ATOM
M  V30 1 C 74.147400 55.336000 41.760600 0
M  V30 2 C 73.636600 55.959300 40.524300 0
M  V30 3 N 73.240300 56.453700 39.558000 0
M  V30 4 C 73.690700 56.174500 42.957300 0
M  V30 5 C 74.429200 57.516400 42.783200 0
M  V30 6 C 75.709800 57.180800 42.004000 0
M  V30 7 C 75.642600 55.670000 41.815900 0
M  V30 8 H 74.012100 55.658500 43.865200 0
M  V30 9 H 72.611800 56.296400 43.023100 0
M  V30 10 H 74.659100 58.005300 43.724600 0
M  V30 11 H 73.816200 58.209300 42.205000 0
M  V30 12 H 76.612900 57.493100 42.529300 0
M  V30 13 H 75.712100 57.658200 41.025800 0
M  V30 14 H 76.190300 55.330000 40.939800 0
M  V30 15 H 76.072200 55.257600 42.717600 0
M  V30 16 R 73.743300 53.818100 41.880800 0
M  V30 END ATOM
M  V30 BEGIN BOND
M  V30 1 1 2 1
M  V30 2 3 3 2
M  V30 3 1 4 1
M  V30 4 1 5 4
M  V30 5 1 6 5
M  V30 6 1 7 1
M  V30 7 1 7 6
M  V30 8 1 8 4
M  V30 9 1 9 4
M  V30 10 1 10 5
M  V30 11 1 11 5
M  V30 12 1 12 6
M  V30 13 1 13 6
M  V30 14 1 14 7
M  V30 15 1 15 7
M  V30 16 1 16 1
M  V30 END BOND
M  V30 END CTAB
M  END
$$$$
R-group 216 (11214-1)
     RDKit          3D

  0  0  0  0  0  0  0  0  0  0999 V3000
M  V30 BEGIN CTAB
M  V30 COUNTS 15 15 0 0 1
M  V30 BEGIN ATOM
M  V30 1 N 73.992900 54.908200 41.499700 0
M  V30 2 C 74.547100 55.816700 42.499600 0
M  V30 3 C 74.554700 57.175000 41.798600 0
M  V30 4 N 73.956500 56.857400 40.521600 0
M  V30 5 C 73.649600 57.857400 39.515800 0
M  V30 6 C 73.671900 55.571500 40.367600 0
M  V30 7 O 73.136900 55.126800 39.351300 0
M  V30 8 H 73.914000 55.830700 43.388300 0
M  V30 9 H 75.555100 55.517900 42.790900 0
M  V30 10 H 73.966700 57.919900 42.337000 0
M  V30 11 H 75.568700 57.551400 41.657000 0
M  V30 12 H 74.540900 58.055500 38.924700 0
M  V30 13 H 72.872700 57.508200 38.835200 0
M  V30 14 H 73.272200 58.774400 39.964500 0
M  V30 15 R 73.639100 53.521300 41.880100 0
M  V30 END ATOM
M  V30 BEGIN BOND
M  V30 1 1 2 1
M  V30 2 1 3 2
M  V30 3 1 4 3
M  V30 4 1 5 4
M  V30 5 1 6 1
M  V30 6 1 6 4
M  V30 7 2 7 6
M  V30 8 1 8 2
M  V30 9 1 9 2
M  V30 10 1 10 3
M  V30 11 1 11 3
M  V30 12 1 12 5
M  V30 13 1 13 5
M  V30 14 1 14 5
M  V30 15 1 15 1
M  V30 END BOND
M  V30 END CTAB
M  END
$$$$
R-group 217 (6634-1)
     RDKit          3D

  0  0  0  0  0  0  0  0  0  0999 V3000
M  V30 BEGIN CTAB
M  V30 COUNTS 16 15 0 0 1
M  V30 BEGIN ATOM
M  V30 1 C 73.883800 54.900100 41.527200 0
M  V30 2 O 74.360100 55.367800 40.493600 0
M  V30 3 N 73.669900 55.634300 42.612500 0
M  V30 4 C 73.967700 57.022400 42.856400 0 CFG=2
M  V30 5 C 73.520900 57.976900 41.744100 0
M  V30 6 C 75.442700 57.073000 43.214600 0
M  V30 7 O 76.147700 56.859000 42.016200 0
M  V30 8 H 73.372800 57.290500 43.724300 0
M  V30 9 H 73.666800 59.000100 42.062400 0
M  V30 10 H 74.054400 57.819400 40.813300 0
M  V30 11 H 72.471200 57.851300 41.524400 0
M  V30 12 H 75.677400 58.015900 43.705900 0
M  V30 13 H 75.688100 56.274000 43.920900 0
M  V30 14 H 73.259500 55.150900 43.410600 0
M  V30 15 H 75.649900 56.244600 41.481300 0
M  V30 16 R 73.549300 53.419900 41.695200 0
M  V30 END ATOM
M  V30 BEGIN BOND
M  V30 1 2 2 1
M  V30 2 1 3 1
M  V30 3 1 4 3
M  V30 4 1 5 4
M  V30 5 1 6 4
M  V30 6 1 7 6
M  V30 7 1 4 8 CFG=1
M  V30 8 1 9 5
M  V30 9 1 10 5
M  V30 10 1 11 5
M  V30 11 1 12 6
M  V30 12 1 13 6
M  V30 13 1 14 3
M  V30 14 1 15 7
M  V30 15 1 16 1
M  V30 END BOND
M  V30 END CTAB
M  END
$$$$
R-group 218 (1279-1)
     RDKit          3D

  0  0  0  0  0  0  0  0  0  0999 V3000
M  V30 BEGIN CTAB
M  V30 COUNTS 10 9 0 0 1
M  V30 BEGIN ATOM
M  V30 1 N 73.272300 54.710900 42.124700 0
M  V30 2 S 74.461400 55.940600 42.155400 0
M  V30 3 C 73.435600 57.422900 42.497900 0
M  V30 4 O 75.300400 55.658300 43.323700 0
M  V30 5 O 75.045700 56.078500 40.816000 0
M  V30 6 H 74.072100 58.295400 42.609100 0
M  V30 7 H 72.757300 57.593000 41.662900 0
M  V30 8 H 72.871500 57.269300 43.417600 0
M  V30 9 H 72.832500 54.686000 43.051800 0
M  V30 10 R 73.530000 53.341100 41.722200 0
M  V30 END ATOM
M  V30 BEGIN BOND
M  V30 1 1 2 1
M  V30 2 1 3 2
M  V30 3 2 4 2
M  V30 4 2 5 2
M  V30 5 1 6 3
M  V30 6 1 7 3
M  V30 7 1 8 3
M  V30 8 1 9 1
M  V30 9 1 10 1
M  V30 END BOND
M  V30 END CTAB
M  END
$$$$
R-group 219 (10275-1)
     RDKit          3D

  0  0  0  0  0  0  0  0  0  0999 V3000
M  V30 BEGIN CTAB
M  V30 COUNTS 18 19 0 0 1
M  V30 BEGIN ATOM
M  V30 1 C 74.024900 54.879700 41.387900 0 CFG=2
M  V30 2 C 74.069700 55.679800 42.671700 0 CFG=1
M  V30 3 O 75.274600 55.522700 43.325600 0
M  V30 4 C 73.949300 57.138200 42.279200 0 CFG=2
M  V30 5 O 73.203800 57.657700 43.324600 0
M  V30 6 C 73.210200 57.160500 40.972200 0 CFG=1
M  V30 7 C 73.846700 56.846800 39.653300 0
M  V30 8 C 73.197600 55.743300 40.446600 0 CFG=1
M  V30 9 H 75.035700 54.861900 40.976000 0
M  V30 10 H 73.257300 55.363200 43.325400 0
M  V30 11 H 74.903000 57.657300 42.169000 0
M  V30 12 H 72.317100 57.777100 40.920100 0
M  V30 13 H 73.315100 57.204800 38.781500 0
M  V30 14 H 74.932300 56.873900 39.591000 0
M  V30 15 H 72.222300 55.377900 40.132700 0
M  V30 16 H 75.375600 56.250300 43.917800 0
M  V30 17 H 72.482000 57.076800 43.500200 0
M  V30 18 R 73.548700 53.426300 41.621900 0
M  V30 END ATOM
M  V30 BEGIN BOND
M  V30 1 1 2 1
M  V30 2 1 3 2
M  V30 3 1 4 2
M  V30 4 1 5 4
M  V30 5 1 6 4
M  V30 6 1 7 6
M  V30 7 1 8 1
M  V30 8 1 8 6
M  V30 9 1 8 7
M  V30 10 1 1 9 CFG=3
M  V30 11 1 2 10 CFG=1
M  V30 12 1 4 11 CFG=3
M  V30 13 1 6 12 CFG=3
M  V30 14 1 13 7
M  V30 15 1 14 7
M  V30 16 1 8 15 CFG=3
M  V30 17 1 16 3
M  V30 18 1 17 5
M  V30 19 1 18 1
M  V30 END BOND
M  V30 END CTAB
M  END
$$$$
R-group 220 (19918-2)
     RDKit          3D

  0  0  0  0  0  0  0  0  0  0999 V3000
M  V30 BEGIN CTAB
M  V30 COUNTS 16 16 0 0 1
M  V30 BEGIN ATOM
M  V30 1 N 73.984500 55.170300 41.853100 0
M  V30 2 C 74.172700 55.846900 43.138000 0
M  V30 3 C 74.869200 57.173000 42.818800 0 CFG=1
M  V30 4 C 76.375700 57.103700 43.079200 0
M  V30 5 C 74.565200 57.400600 41.350300 0
M  V30 6 C 74.071400 56.072800 40.854400 0
M  V30 7 O 73.771300 55.936000 39.670000 0
M  V30 8 H 73.197700 56.056600 43.585600 0
M  V30 9 H 74.746600 55.272900 43.861700 0
M  V30 10 H 74.440400 57.979100 43.413400 0
M  V30 11 H 76.864500 56.355700 42.447500 0
M  V30 12 H 76.867900 58.058500 42.893500 0
M  V30 13 H 76.542300 56.846000 44.123800 0
M  V30 14 H 75.456500 57.658000 40.780200 0
M  V30 15 H 73.769200 58.133300 41.217100 0
M  V30 16 R 73.589800 53.737200 41.813100 0
M  V30 END ATOM
M  V30 BEGIN BOND
M  V30 1 1 2 1
M  V30 2 1 3 2
M  V30 3 1 4 3
M  V30 4 1 5 3
M  V30 5 1 6 1
M  V30 6 1 6 5
M  V30 7 2 7 6
M  V30 8 1 8 2
M  V30 9 1 9 2
M  V30 10 1 3 10 CFG=1
M  V30 11 1 11 4
M  V30 12 1 12 4
M  V30 13 1 13 4
M  V30 14 1 14 5
M  V30 15 1 15 5
M  V30 16 1 16 1
M  V30 END BOND
M  V30 END CTAB
M  END
$$$$
R-group 221 (14894-3)
     RDKit          3D

  0  0  0  0  0  0  0  0  0  0999 V3000
M  V30 BEGIN CTAB
M  V30 COUNTS 14 14 0 0 1
M  V30 BEGIN ATOM
M  V30 1 N 73.868500 55.014900 41.724100 0
M  V30 2 C 73.624900 55.833400 42.909200 0
M  V30 3 C 74.229800 57.193600 42.532600 0 CFG=2
M  V30 4 F 73.274500 58.044900 42.126100 0
M  V30 5 C 75.221600 56.860000 41.412100 0 CFG=1
M  V30 6 F 76.471600 57.258000 41.637600 0
M  V30 7 C 75.239200 55.353000 41.370600 0
M  V30 8 H 72.570300 55.890400 43.181900 0
M  V30 9 H 74.167400 55.418100 43.755300 0
M  V30 10 H 74.731400 57.658400 43.380100 0
M  V30 11 H 74.892200 57.258100 40.452200 0
M  V30 12 H 75.928200 54.984000 42.125700 0
M  V30 13 H 75.575500 55.003300 40.402800 0
M  V30 14 R 73.567400 53.584800 41.862000 0
M  V30 END ATOM
M  V30 BEGIN BOND
M  V30 1 1 2 1
M  V30 2 1 3 2
M  V30 3 1 4 3
M  V30 4 1 5 3
M  V30 5 1 6 5
M  V30 6 1 7 1
M  V30 7 1 7 5
M  V30 8 1 8 2
M  V30 9 1 9 2
M  V30 10 1 3 10 CFG=1
M  V30 11 1 5 11 CFG=3
M  V30 12 1 12 7
M  V30 13 1 13 7
M  V30 14 1 14 1
M  V30 END BOND
M  V30 END CTAB
M  END
$$$$
R-group 222 (178-1)
     RDKit          3D

  0  0  0  0  0  0  0  0  0  0999 V3000
M  V30 BEGIN CTAB
M  V30 COUNTS 6 5 0 0 1
M  V30 BEGIN ATOM
M  V30 1 C 74.124900 55.302000 41.912900 0
M  V30 2 N 73.698000 56.057900 42.924600 0
M  V30 3 O 74.799300 55.781600 41.005400 0
M  V30 4 H 73.168300 55.619600 43.675900 0
M  V30 5 H 73.929400 57.039400 42.948400 0
M  V30 6 R 73.732500 53.807000 41.940600 0
M  V30 END ATOM
M  V30 BEGIN BOND
M  V30 1 1 2 1
M  V30 2 2 3 1
M  V30 3 1 4 2
M  V30 4 1 5 2
M  V30 5 1 6 1
M  V30 END BOND
M  V30 END CTAB
M  END
$$$$
R-group 223 (2405-1)
     RDKit          3D

  0  0  0  0  0  0  0  0  0  0999 V3000
M  V30 BEGIN CTAB
M  V30 COUNTS 12 12 0 0 1
M  V30 BEGIN ATOM
M  V30 1 C 73.882700 54.852900 41.476300 0
M  V30 2 C 74.873000 55.578600 42.082300 0
M  V30 3 C 74.885000 56.810800 41.381200 0
M  V30 4 N 73.965500 56.858200 40.441700 0
M  V30 5 N 73.303200 55.690200 40.525200 0
M  V30 6 C 72.187000 55.477900 39.620500 0
M  V30 7 F 71.617500 56.638700 39.296000 0
M  V30 8 F 72.608900 54.858500 38.524800 0
M  V30 9 H 75.527500 55.265500 42.883100 0
M  V30 10 H 75.538400 57.658000 41.521200 0
M  V30 11 H 71.408600 54.893800 40.106100 0
M  V30 12 R 73.486400 53.410700 41.708700 0
M  V30 END ATOM
M  V30 BEGIN BOND
M  V30 1 2 2 1
M  V30 2 1 3 2
M  V30 3 2 4 3
M  V30 4 1 5 1
M  V30 5 1 5 4
M  V30 6 1 6 5
M  V30 7 1 7 6
M  V30 8 1 8 6
M  V30 9 1 9 2
M  V30 10 1 10 3
M  V30 11 1 11 6
M  V30 12 1 12 1
M  V30 END BOND
M  V30 END CTAB
M  END
$$$$
R-group 224 (18317-2)
     RDKit          3D

  0  0  0  0  0  0  0  0  0  0999 V3000
M  V30 BEGIN CTAB
M  V30 COUNTS 21 21 0 0 1
M  V30 BEGIN ATOM
M  V30 1 C 73.524100 55.215400 41.326700 0 CFG=2
M  V30 2 C 72.614300 55.680200 40.129100 0
M  V30 3 C 73.152200 56.016900 42.604700 0
M  V30 4 C 74.400900 56.674000 43.120400 0
M  V30 5 C 75.147100 56.988700 41.841600 0 CFG=1
M  V30 6 C 76.609800 57.218800 42.115100 0
M  V30 7 C 74.936000 55.734300 40.992400 0
M  V30 8 H 72.526900 56.763800 40.092800 0
M  V30 9 H 73.032000 55.380900 39.165600 0
M  V30 10 H 71.601000 55.275100 40.149600 0
M  V30 11 H 72.480100 56.858000 42.428200 0
M  V30 12 H 72.640300 55.406200 43.324500 0
M  V30 13 H 74.954000 55.951700 43.722800 0
M  V30 14 H 74.194400 57.566200 43.724100 0
M  V30 15 H 74.687800 57.846100 41.348900 0
M  V30 16 H 76.872600 56.259400 42.522300 0
M  V30 17 H 77.165300 57.417300 41.194000 0
M  V30 18 H 76.830100 57.995200 42.847600 0
M  V30 19 H 75.673000 54.975700 41.231500 0
M  V30 20 H 75.082700 55.961700 39.940900 0
M  V30 21 R 73.444900 53.642600 41.597100 0
M  V30 END ATOM
M  V30 BEGIN BOND
M  V30 1 1 2 1
M  V30 2 1 3 1
M  V30 3 1 4 3
M  V30 4 1 5 4
M  V30 5 1 6 5
M  V30 6 1 7 1
M  V30 7 1 7 5
M  V30 8 1 8 2
M  V30 9 1 9 2
M  V30 10 1 10 2
M  V30 11 1 11 3
M  V30 12 1 12 3
M  V30 13 1 13 4
M  V30 14 1 14 4
M  V30 15 1 5 15 CFG=3
M  V30 16 1 16 6
M  V30 17 1 17 6
M  V30 18 1 18 6
M  V30 19 1 19 7
M  V30 20 1 20 7
M  V30 21 1 1 21 CFG=1
M  V30 END BOND
M  V30 END CTAB
M  END
$$$$
R-group 225 (43699-1)
     RDKit          3D

  0  0  0  0  0  0  0  0  0  0999 V3000
M  V30 BEGIN CTAB
M  V30 COUNTS 20 21 0 0 1
M  V30 BEGIN ATOM
M  V30 1 O 73.404800 54.580600 42.143200 0
M  V30 2 C 74.653100 55.212700 41.963200 0 CFG=2
M  V30 3 C 75.148800 55.790300 43.294100 0
M  V30 4 C 75.339000 57.258000 42.909300 0 CFG=1
M  V30 5 C 76.463800 57.366100 41.851300 0
M  V30 6 C 75.799900 56.873700 40.562700 0
M  V30 7 C 74.427400 56.437300 41.071900 0 CFG=2
M  V30 8 C 74.072300 57.497800 42.103300 0
M  V30 9 H 75.438700 54.586200 41.551300 0
M  V30 10 H 74.381000 55.654500 44.055800 0
M  V30 11 H 76.062600 55.323800 43.659900 0
M  V30 12 H 75.479000 57.932200 43.747700 0
M  V30 13 H 76.872000 58.365500 41.722300 0
M  V30 14 H 77.271700 56.706000 42.124700 0
M  V30 15 H 76.364900 56.052500 40.124800 0
M  V30 16 H 75.710600 57.657200 39.816200 0
M  V30 17 H 73.692500 56.288100 40.279900 0
M  V30 18 H 73.992100 58.497900 41.704000 0
M  V30 19 H 73.160400 57.276300 42.659800 0
M  V30 20 R 73.377600 53.192000 41.910500 0
M  V30 END ATOM
M  V30 BEGIN BOND
M  V30 1 1 2 1
M  V30 2 1 3 2
M  V30 3 1 4 3
M  V30 4 1 5 4
M  V30 5 1 6 5
M  V30 6 1 7 2
M  V30 7 1 7 6
M  V30 8 1 8 4
M  V30 9 1 8 7
M  V30 10 1 2 9 CFG=3
M  V30 11 1 10 3
M  V30 12 1 11 3
M  V30 13 1 4 12 CFG=1
M  V30 14 1 13 5
M  V30 15 1 14 5
M  V30 16 1 15 6
M  V30 17 1 16 6
M  V30 18 1 7 17 CFG=3
M  V30 19 1 18 8
M  V30 20 1 19 8
M  V30 21 1 20 1
M  V30 END BOND
M  V30 END CTAB
M  END
$$$$
R-group 226 (31145-2)
     RDKit          3D

  0  0  0  0  0  0  0  0  0  0999 V3000
M  V30 BEGIN CTAB
M  V30 COUNTS 16 16 0 0 1
M  V30 BEGIN ATOM
M  V30 1 C 73.984700 55.199900 41.579800 0 CFG=1
M  V30 2 C 73.221300 55.823900 40.372000 0
M  V30 3 C 75.465400 55.558200 41.447100 0
M  V30 4 C 75.549900 57.001000 41.923800 0
M  V30 5 O 74.324900 57.251600 42.605000 0
M  V30 6 C 73.669400 56.016600 42.838300 0
M  V30 7 H 73.242500 56.912900 40.379800 0
M  V30 8 H 73.655600 55.526000 39.419100 0
M  V30 9 H 72.174800 55.534400 40.339000 0
M  V30 10 H 76.065800 54.971100 42.124800 0
M  V30 11 H 75.878000 55.430900 40.448100 0
M  V30 12 H 76.406700 57.165300 42.577900 0
M  V30 13 H 75.645400 57.657200 41.064900 0
M  V30 14 H 72.605800 56.154000 43.023000 0
M  V30 15 H 74.103500 55.561300 43.726000 0
M  V30 16 R 73.671100 53.664300 41.782800 0
M  V30 END ATOM
M  V30 BEGIN BOND
M  V30 1 1 2 1
M  V30 2 1 3 1
M  V30 3 1 4 3
M  V30 4 1 5 4
M  V30 5 1 6 1
M  V30 6 1 6 5
M  V30 7 1 7 2
M  V30 8 1 8 2
M  V30 9 1 9 2
M  V30 10 1 10 3
M  V30 11 1 11 3
M  V30 12 1 12 4
M  V30 13 1 13 4
M  V30 14 1 14 6
M  V30 15 1 15 6
M  V30 16 1 1 16 CFG=1
M  V30 END BOND
M  V30 END CTAB
M  END
$$$$
R-group 227 (16344-1)
     RDKit          3D

  0  0  0  0  0  0  0  0  0  0999 V3000
M  V30 BEGIN CTAB
M  V30 COUNTS 17 17 0 0 1
M  V30 BEGIN ATOM
M  V30 1 C 73.428600 54.527200 41.407200 0
M  V30 2 O 72.960900 54.957900 40.348200 0
M  V30 3 N 74.073800 55.312200 42.270300 0
M  V30 4 C 74.534100 56.649200 41.953000 0
M  V30 5 C 73.398800 57.658800 42.149800 0
M  V30 6 C 75.892200 56.888500 42.603600 0
M  V30 7 O 76.472200 57.258100 41.331500 0
M  V30 8 C 75.358600 56.656600 40.652900 0
M  V30 9 H 73.744700 58.688100 42.118600 0
M  V30 10 H 72.647000 57.566800 41.367600 0
M  V30 11 H 72.899400 57.521900 43.109200 0
M  V30 12 H 75.901800 57.682600 43.340400 0
M  V30 13 H 76.367700 56.002300 43.018900 0
M  V30 14 H 75.635900 55.673900 40.265100 0
M  V30 15 H 74.938300 57.267200 39.858400 0
M  V30 16 H 74.364200 54.913400 43.150400 0
M  V30 17 R 73.359100 53.045900 41.749200 0
M  V30 END ATOM
M  V30 BEGIN BOND
M  V30 1 2 2 1
M  V30 2 1 3 1
M  V30 3 1 4 3
M  V30 4 1 5 4
M  V30 5 1 6 4
M  V30 6 1 7 6
M  V30 7 1 8 4
M  V30 8 1 8 7
M  V30 9 1 9 5
M  V30 10 1 10 5
M  V30 11 1 11 5
M  V30 12 1 12 6
M  V30 13 1 13 6
M  V30 14 1 14 8
M  V30 15 1 15 8
M  V30 16 1 16 3
M  V30 17 1 17 1
M  V30 END BOND
M  V30 END CTAB
M  END
$$$$
R-group 228 (11224-1)
     RDKit          3D

  0  0  0  0  0  0  0  0  0  0999 V3000
M  V30 BEGIN CTAB
M  V30 COUNTS 16 16 0 0 1
M  V30 BEGIN ATOM
M  V30 1 C 73.408400 57.559200 43.252900 0
M  V30 2 C 73.407800 56.019100 43.170100 0
M  V30 3 C 74.014600 55.382100 41.894900 0
M  V30 4 C 75.479200 55.789300 41.650600 0
M  V30 5 O 75.085100 56.858000 40.768200 0
M  V30 6 C 73.812500 56.203400 40.594600 0
M  V30 7 H 72.871900 57.886500 44.140000 0
M  V30 8 H 74.421400 57.957000 43.315400 0
M  V30 9 H 72.904000 58.036600 42.415500 0
M  V30 10 H 72.381600 55.684700 43.324700 0
M  V30 11 H 73.969400 55.658000 44.029300 0
M  V30 12 H 76.004300 56.141500 42.539300 0
M  V30 13 H 76.072100 55.048600 41.122000 0
M  V30 14 H 73.803800 55.656900 39.654400 0
M  V30 15 H 72.967100 56.889100 40.604500 0
M  V30 16 R 73.671000 53.842000 41.899100 0
M  V30 END ATOM
M  V30 BEGIN BOND
M  V30 1 1 2 1
M  V30 2 1 3 2
M  V30 3 1 4 3
M  V30 4 1 5 4
M  V30 5 1 6 3
M  V30 6 1 6 5
M  V30 7 1 7 1
M  V30 8 1 8 1
M  V30 9 1 9 1
M  V30 10 1 10 2
M  V30 11 1 11 2
M  V30 12 1 12 4
M  V30 13 1 13 4
M  V30 14 1 14 6
M  V30 15 1 15 6
M  V30 16 1 16 3
M  V30 END BOND
M  V30 END CTAB
M  END
$$$$
R-group 229 (12885-1)
     RDKit          3D

  0  0  0  0  0  0  0  0  0  0999 V3000
M  V30 BEGIN CTAB
M  V30 COUNTS 20 19 0 0 1
M  V30 BEGIN ATOM
M  V30 1 C 73.278100 54.822400 41.938500 0
M  V30 2 C 74.634500 55.514600 41.741400 0 CFG=1
M  V30 3 F 75.276300 54.843600 40.807200 0
M  V30 4 C 74.625000 56.979700 41.249200 0
M  V30 5 C 76.110000 57.436100 41.240700 0
M  V30 6 C 73.807300 57.854500 42.221600 0
M  V30 7 C 74.006200 57.070500 39.825300 0
M  V30 8 H 72.833300 55.182700 42.869000 0
M  V30 9 H 72.615700 55.121600 41.131500 0
M  V30 10 H 75.230000 55.412800 42.650500 0
M  V30 11 H 76.286600 58.458300 40.924800 0
M  V30 12 H 76.714000 56.815600 40.578500 0
M  V30 13 H 76.545800 57.353400 42.235900 0
M  V30 14 H 72.813100 57.450800 42.395400 0
M  V30 15 H 74.292900 57.945300 43.193200 0
M  V30 16 H 73.655100 58.855300 41.825100 0
M  V30 17 H 72.946400 56.821900 39.824300 0
M  V30 18 H 74.070200 58.057900 39.370800 0
M  V30 19 H 74.494900 56.395200 39.122300 0
M  V30 20 R 73.282600 53.278800 41.943800 0
M  V30 END ATOM
M  V30 BEGIN BOND
M  V30 1 1 2 1
M  V30 2 1 3 2
M  V30 3 1 4 2
M  V30 4 1 5 4
M  V30 5 1 6 4
M  V30 6 1 7 4
M  V30 7 1 8 1
M  V30 8 1 9 1
M  V30 9 1 2 10 CFG=1
M  V30 10 1 11 5
M  V30 11 1 12 5
M  V30 12 1 13 5
M  V30 13 1 14 6
M  V30 14 1 15 6
M  V30 15 1 16 6
M  V30 16 1 17 7
M  V30 17 1 18 7
M  V30 18 1 19 7
M  V30 19 1 20 1
M  V30 END BOND
M  V30 END CTAB
M  END
$$$$
R-group 230 (22341-4)
     RDKit          3D

  0  0  0  0  0  0  0  0  0  0999 V3000
M  V30 BEGIN CTAB
M  V30 COUNTS 18 18 0 0 1
M  V30 BEGIN ATOM
M  V30 1 C 73.598100 54.789500 42.038900 0 CFG=2
M  V30 2 O 73.272700 55.372000 40.787300 0
M  V30 3 C 73.951500 56.597400 40.590600 0 CFG=1
M  V30 4 C 72.873100 57.662000 40.459700 0
M  V30 5 C 74.902900 56.750400 41.782800 0 CFG=2
M  V30 6 O 76.159900 57.184600 41.324600 0
M  V30 7 C 75.003400 55.326200 42.303300 0 CFG=1
M  V30 8 O 75.272000 55.258100 43.687600 0
M  V30 9 H 72.905900 55.198200 42.779000 0
M  V30 10 H 74.497600 56.500600 39.650300 0
M  V30 11 H 73.272200 58.558800 39.980700 0
M  V30 12 H 72.062000 57.260700 39.850000 0
M  V30 13 H 72.472900 57.941700 41.432900 0
M  V30 14 H 74.493700 57.419800 42.543200 0
M  V30 15 H 75.739000 54.769800 41.728100 0
M  V30 16 H 76.757500 57.165400 42.058200 0
M  V30 17 H 74.448700 55.356600 44.146600 0
M  V30 18 R 73.438000 53.251800 41.964800 0
M  V30 END ATOM
M  V30 BEGIN BOND
M  V30 1 1 2 1
M  V30 2 1 3 2
M  V30 3 1 4 3
M  V30 4 1 5 3
M  V30 5 1 6 5
M  V30 6 1 7 1
M  V30 7 1 7 5
M  V30 8 1 8 7
M  V30 9 1 1 9 CFG=1
M  V30 10 1 3 10 CFG=3
M  V30 11 1 11 4
M  V30 12 1 12 4
M  V30 13 1 13 4
M  V30 14 1 5 14 CFG=1
M  V30 15 1 7 15 CFG=3
M  V30 16 1 16 6
M  V30 17 1 17 8
M  V30 18 1 18 1
M  V30 END BOND
M  V30 END CTAB
M  END
$$$$
R-group 231 (1115-1)
     RDKit          3D

  0  0  0  0  0  0  0  0  0  0999 V3000
M  V30 BEGIN CTAB
M  V30 COUNTS 12 12 0 0 1
M  V30 BEGIN ATOM
M  V30 1 C 73.784100 55.215800 42.138700 0
M  V30 2 C 75.162000 55.765900 41.822400 0
M  V30 3 C 75.479300 56.482300 40.528100 0
M  V30 4 C 75.357200 57.258000 41.811200 0
M  V30 5 H 73.053300 55.825100 41.610600 0
M  V30 6 H 73.607500 55.382400 43.201400 0
M  V30 7 H 75.979700 55.232400 42.289600 0
M  V30 8 H 76.479900 56.348700 40.125400 0
M  V30 9 H 74.684100 56.599300 39.791600 0
M  V30 10 H 74.473300 57.880500 41.933100 0
M  V30 11 H 76.272700 57.654500 42.247700 0
M  V30 12 R 73.542800 53.722200 41.802300 0
M  V30 END ATOM
M  V30 BEGIN BOND
M  V30 1 1 2 1
M  V30 2 1 3 2
M  V30 3 1 4 2
M  V30 4 1 4 3
M  V30 5 1 5 1
M  V30 6 1 6 1
M  V30 7 1 7 2
M  V30 8 1 8 3
M  V30 9 1 9 3
M  V30 10 1 10 4
M  V30 11 1 11 4
M  V30 12 1 12 1
M  V30 END BOND
M  V30 END CTAB
M  END
$$$$
R-group 232 (8924-1)
     RDKit          3D

  0  0  0  0  0  0  0  0  0  0999 V3000
M  V30 BEGIN CTAB
M  V30 COUNTS 23 24 0 0 1
M  V30 BEGIN ATOM
M  V30 1 C 73.935600 54.715800 41.575700 0
M  V30 2 C 74.381800 55.460300 40.531600 0
M  V30 3 C 74.517500 56.966500 40.644800 0 CFG=2
M  V30 4 C 75.744800 57.234900 41.537700 0
M  V30 5 C 75.206200 57.149700 42.975500 0
M  V30 6 C 73.689400 56.875000 42.834700 0 CFG=2
M  V30 7 C 73.493300 55.380200 42.856500 0
M  V30 8 C 73.277500 57.374000 41.438300 0 CFG=1
M  V30 9 C 72.811400 58.796100 41.551400 0
M  V30 10 H 74.594400 55.073100 39.561000 0
M  V30 11 H 74.567700 57.419200 39.653200 0
M  V30 12 H 76.517900 56.481600 41.375100 0
M  V30 13 H 76.227300 58.176900 41.319200 0
M  V30 14 H 75.378500 58.040800 43.563300 0
M  V30 15 H 75.726900 56.366800 43.525200 0
M  V30 16 H 73.121300 57.323300 43.651700 0
M  V30 17 H 72.432000 55.158300 42.926300 0
M  V30 18 H 74.049200 54.996700 43.713200 0
M  V30 19 H 72.472600 56.860300 40.923300 0
M  V30 20 H 73.648300 59.258200 42.039200 0
M  V30 21 H 72.503000 59.257800 40.608200 0
M  V30 22 H 71.954000 58.867800 42.220000 0
M  V30 23 R 73.641700 53.235800 41.578700 0
M  V30 END ATOM
M  V30 BEGIN BOND
M  V30 1 2 2 1
M  V30 2 1 3 2
M  V30 3 1 4 3
M  V30 4 1 5 4
M  V30 5 1 6 5
M  V30 6 1 7 1
M  V30 7 1 7 6
M  V30 8 1 8 3
M  V30 9 1 8 6
M  V30 10 1 9 8
M  V30 11 1 10 2
M  V30 12 1 3 11 CFG=3
M  V30 13 1 12 4
M  V30 14 1 13 4
M  V30 15 1 14 5
M  V30 16 1 15 5
M  V30 17 1 6 16 CFG=1
M  V30 18 1 17 7
M  V30 19 1 18 7
M  V30 20 1 8 19 CFG=3
M  V30 21 1 20 9
M  V30 22 1 21 9
M  V30 23 1 22 9
M  V30 24 1 23 1
M  V30 END BOND
M  V30 END CTAB
M  END
$$$$
R-group 233 (3822-1)
     RDKit          3D

  0  0  0  0  0  0  0  0  0  0999 V3000
M  V30 BEGIN CTAB
M  V30 COUNTS 18 17 0 0 1
M  V30 BEGIN ATOM
M  V30 1 N 73.673100 54.834200 42.123700 0
M  V30 2 C 74.640600 55.486600 41.457200 0
M  V30 3 O 75.258500 54.994700 40.524900 0
M  V30 4 C 75.057200 56.859000 41.975500 0
M  V30 5 C 76.041300 57.517000 40.971900 0
M  V30 6 C 75.814000 56.606100 43.284700 0
M  V30 7 C 73.794400 57.714900 42.185700 0
M  V30 8 H 76.472100 58.457200 41.321100 0
M  V30 9 H 75.581100 57.657500 39.994600 0
M  V30 10 H 76.882000 56.860700 40.784900 0
M  V30 11 H 75.273200 55.963400 43.975300 0
M  V30 12 H 76.724700 56.058100 43.067200 0
M  V30 13 H 76.071600 57.538500 43.781400 0
M  V30 14 H 73.127800 57.300500 42.943200 0
M  V30 15 H 74.061600 58.703300 42.521000 0
M  V30 16 H 73.226300 57.829200 41.261500 0
M  V30 17 H 73.223400 55.315500 42.889900 0
M  V30 18 R 73.430000 53.404100 42.044600 0
M  V30 END ATOM
M  V30 BEGIN BOND
M  V30 1 1 2 1
M  V30 2 2 3 2
M  V30 3 1 4 2
M  V30 4 1 5 4
M  V30 5 1 6 4
M  V30 6 1 7 4
M  V30 7 1 8 5
M  V30 8 1 9 5
M  V30 9 1 10 5
M  V30 10 1 11 6
M  V30 11 1 12 6
M  V30 12 1 13 6
M  V30 13 1 14 7
M  V30 14 1 15 7
M  V30 15 1 16 7
M  V30 16 1 17 1
M  V30 17 1 18 1
M  V30 END BOND
M  V30 END CTAB
M  END
$$$$
R-group 234 (11936-1)
     RDKit          3D

  0  0  0  0  0  0  0  0  0  0999 V3000
M  V30 BEGIN CTAB
M  V30 COUNTS 17 18 0 0 1
M  V30 BEGIN ATOM
M  V30 1 C 74.409300 55.121300 42.445300 0 CFG=2
M  V30 2 C 73.369400 56.144100 42.950100 0
M  V30 3 C 73.670500 57.408900 42.097200 0 CFG=2
M  V30 4 C 73.273500 57.146100 40.658600 0
M  V30 5 C 74.121300 56.237400 40.181600 0
M  V30 6 C 75.105600 55.887300 41.285800 0 CFG=1
M  V30 7 C 75.194600 57.256800 41.966000 0
M  V30 8 H 75.156600 55.090300 43.239400 0
M  V30 9 H 72.376800 55.736100 42.924800 0
M  V30 10 H 73.486000 56.323900 44.007500 0
M  V30 11 H 73.325600 58.360300 42.501600 0
M  V30 12 H 72.438500 57.603100 40.148800 0
M  V30 13 H 74.122200 55.801400 39.194000 0
M  V30 14 H 76.064000 55.494400 40.950500 0
M  V30 15 H 75.665400 58.001500 41.324700 0
M  V30 16 H 75.722100 57.259900 42.921800 0
M  V30 17 R 73.879300 53.660700 42.262200 0
M  V30 END ATOM
M  V30 BEGIN BOND
M  V30 1 1 2 1
M  V30 2 1 3 2
M  V30 3 1 4 3
M  V30 4 2 5 4
M  V30 5 1 6 1
M  V30 6 1 6 5
M  V30 7 1 7 3
M  V30 8 1 7 6
M  V30 9 1 1 8 CFG=1
M  V30 10 1 9 2
M  V30 11 1 10 2
M  V30 12 1 3 11 CFG=1
M  V30 13 1 12 4
M  V30 14 1 13 5
M  V30 15 1 6 14 CFG=3
M  V30 16 1 15 7
M  V30 17 1 16 7
M  V30 18 1 17 1
M  V30 END BOND
M  V30 END CTAB
M  END
$$$$
R-group 235 (12987-1)
     RDKit          3D

  0  0  0  0  0  0  0  0  0  0999 V3000
M  V30 BEGIN CTAB
M  V30 COUNTS 13 13 0 0 1
M  V30 BEGIN ATOM
M  V30 1 C 73.818700 55.133800 42.199000 0 CFG=1
M  V30 2 C 75.271400 55.539000 42.491900 0
M  V30 3 C 75.040600 56.862600 41.791400 0 CFG=1
M  V30 4 O 76.074400 57.258000 40.925200 0
M  V30 5 C 73.775000 56.275500 41.162000 0
M  V30 6 H 73.224800 55.450800 43.057600 0
M  V30 7 H 75.520300 55.619200 43.550300 0
M  V30 8 H 75.998200 54.937600 41.949400 0
M  V30 9 H 74.810600 57.657900 42.500900 0
M  V30 10 H 73.937700 55.978100 40.126400 0
M  V30 11 H 72.902200 56.923400 41.245500 0
M  V30 12 H 76.272900 56.523800 40.364200 0
M  V30 13 R 73.495900 53.661200 41.854400 0
M  V30 END ATOM
M  V30 BEGIN BOND
M  V30 1 1 2 1
M  V30 2 1 3 2
M  V30 3 1 4 3
M  V30 4 1 5 1
M  V30 5 1 5 3
M  V30 6 1 1 6 CFG=1
M  V30 7 1 7 2
M  V30 8 1 8 2
M  V30 9 1 3 9 CFG=1
M  V30 10 1 10 5
M  V30 11 1 11 5
M  V30 12 1 12 4
M  V30 13 1 13 1
M  V30 END BOND
M  V30 END CTAB
M  END
$$$$
R-group 236 (20060-4)
     RDKit          3D

  0  0  0  0  0  0  0  0  0  0999 V3000
M  V30 BEGIN CTAB
M  V30 COUNTS 12 12 0 0 1
M  V30 BEGIN ATOM
M  V30 1 C 73.871400 55.262000 42.113700 0 CFG=1
M  V30 2 C 75.237400 55.864700 41.801400 0 CFG=2
M  V30 3 C 75.973900 56.701200 42.824900 0
M  V30 4 C 74.015900 56.406300 41.114400 0
M  V30 5 F 73.922600 56.190700 39.751800 0
M  V30 6 F 73.554400 57.652400 41.503100 0
M  V30 7 H 73.479200 55.553300 43.086500 0
M  V30 8 H 75.901600 55.258100 41.192400 0
M  V30 9 H 75.284900 57.357000 43.357000 0
M  V30 10 H 76.471700 56.057500 43.549400 0
M  V30 11 H 76.718600 57.323700 42.327900 0
M  V30 12 R 73.549200 53.789400 41.795100 0
M  V30 END ATOM
M  V30 BEGIN BOND
M  V30 1 1 2 1
M  V30 2 1 3 2
M  V30 3 1 4 1
M  V30 4 1 4 2
M  V30 5 1 5 4
M  V30 6 1 6 4
M  V30 7 1 1 7 CFG=1
M  V30 8 1 2 8 CFG=3
M  V30 9 1 9 3
M  V30 10 1 10 3
M  V30 11 1 11 3
M  V30 12 1 12 1
M  V30 END BOND
M  V30 END CTAB
M  END
$$$$
R-group 237 (18926-1)
     RDKit          3D

  0  0  0  0  0  0  0  0  0  0999 V3000
M  V30 BEGIN CTAB
M  V30 COUNTS 14 14 0 0 1
M  V30 BEGIN ATOM
M  V30 1 C 73.383000 54.486600 41.404100 0
M  V30 2 O 73.268500 55.007200 40.291900 0
M  V30 3 N 73.566200 55.176600 42.524600 0
M  V30 4 C 74.154800 56.470000 42.744000 0 CFG=2
M  V30 5 C 74.741500 57.247400 41.567100 0
M  V30 6 N 76.072300 56.857800 42.044100 0
M  V30 7 C 75.594500 56.199900 43.145600 0
M  V30 8 O 76.072400 55.658200 44.124700 0
M  V30 9 H 73.587500 57.103600 43.425600 0
M  V30 10 H 74.522900 56.950400 40.547000 0
M  V30 11 H 74.469900 58.286600 41.724700 0
M  V30 12 H 73.342800 54.690800 43.389800 0
M  V30 13 H 77.009500 57.039300 41.713000 0
M  V30 14 R 73.329700 52.980700 41.611900 0
M  V30 END ATOM
M  V30 BEGIN BOND
M  V30 1 2 2 1
M  V30 2 1 3 1
M  V30 3 1 4 3
M  V30 4 1 5 4
M  V30 5 1 6 5
M  V30 6 1 7 4
M  V30 7 1 7 6
M  V30 8 2 8 7
M  V30 9 1 4 9 CFG=1
M  V30 10 1 10 5
M  V30 11 1 11 5
M  V30 12 1 12 3
M  V30 13 1 13 6
M  V30 14 1 14 1
M  V30 END BOND
M  V30 END CTAB
M  END
$$$$
R-group 238 (6269-1)
     RDKit          3D

  0  0  0  0  0  0  0  0  0  0999 V3000
M  V30 BEGIN CTAB
M  V30 COUNTS 11 11 0 0 1
M  V30 BEGIN ATOM
M  V30 1 C 73.970000 55.043800 41.763200 0
M  V30 2 O 74.711500 55.539000 42.801200 0
M  V30 3 C 74.825900 56.856500 42.524900 0
M  V30 4 N 74.174100 57.241300 41.439400 0
M  V30 5 C 73.672300 56.077500 40.896500 0
M  V30 6 C 72.902300 56.133700 39.609500 0
M  V30 7 H 75.352800 57.523300 43.193000 0
M  V30 8 H 73.360100 55.508700 38.841600 0
M  V30 9 H 71.868600 55.812200 39.746300 0
M  V30 10 H 72.871400 57.149200 39.209100 0
M  V30 11 R 73.619800 53.583300 41.820600 0
M  V30 END ATOM
M  V30 BEGIN BOND
M  V30 1 1 2 1
M  V30 2 1 3 2
M  V30 3 2 4 3
M  V30 4 2 5 1
M  V30 5 1 5 4
M  V30 6 1 6 5
M  V30 7 1 7 3
M  V30 8 1 8 6
M  V30 9 1 9 6
M  V30 10 1 10 6
M  V30 11 1 11 1
M  V30 END BOND
M  V30 END CTAB
M  END
$$$$
R-group 239 (31144-2)
     RDKit          3D

  0  0  0  0  0  0  0  0  0  0999 V3000
M  V30 BEGIN CTAB
M  V30 COUNTS 19 19 0 0 1
M  V30 BEGIN ATOM
M  V30 1 C 73.495600 55.097900 41.693600 0 CFG=2
M  V30 2 C 72.992600 55.848600 40.427200 0
M  V30 3 O 73.273100 57.219400 40.670500 0
M  V30 4 C 74.110400 57.312300 41.814100 0
M  V30 5 C 74.744500 55.934900 42.006000 0
M  V30 6 C 75.263700 55.810100 43.441700 0
M  V30 7 C 75.900700 55.811600 40.998000 0
M  V30 8 H 72.821900 55.322800 42.521000 0
M  V30 9 H 73.576200 55.578700 39.549000 0
M  V30 10 H 71.954100 55.686700 40.125100 0
M  V30 11 H 73.503400 57.603500 42.673400 0
M  V30 12 H 74.876500 58.057800 41.678400 0
M  V30 13 H 75.797200 56.716400 43.729400 0
M  V30 14 H 74.430700 55.657700 44.124400 0
M  V30 15 H 75.954100 54.987200 43.591400 0
M  V30 16 H 76.820400 56.235900 41.398200 0
M  V30 17 H 76.072000 54.778700 40.746700 0
M  V30 18 H 75.696700 56.329300 40.062200 0
M  V30 19 R 73.481900 53.527500 41.663400 0
M  V30 END ATOM
M  V30 BEGIN BOND
M  V30 1 1 2 1
M  V30 2 1 3 2
M  V30 3 1 4 3
M  V30 4 1 5 1
M  V30 5 1 5 4
M  V30 6 1 6 5
M  V30 7 1 7 5
M  V30 8 1 1 8 CFG=1
M  V30 9 1 9 2
M  V30 10 1 10 2
M  V30 11 1 11 4
M  V30 12 1 12 4
M  V30 13 1 13 6
M  V30 14 1 14 6
M  V30 15 1 15 6
M  V30 16 1 16 7
M  V30 17 1 17 7
M  V30 18 1 18 7
M  V30 19 1 19 1
M  V30 END BOND
M  V30 END CTAB
M  END
$$$$
R-group 240 (1392-1)
     RDKit          3D

  0  0  0  0  0  0  0  0  0  0999 V3000
M  V30 BEGIN CTAB
M  V30 COUNTS 15 14 0 0 1
M  V30 BEGIN ATOM
M  V30 1 O 73.697500 55.105900 42.061800 0
M  V30 2 C 75.008800 55.618100 41.835000 0
M  V30 3 C 74.960700 56.983100 41.125100 0
M  V30 4 C 74.144300 56.931900 39.816300 0
M  V30 5 C 76.403100 57.455200 40.865300 0
M  V30 6 H 75.639300 54.941700 41.263600 0
M  V30 7 H 75.496600 55.720900 42.806300 0
M  V30 8 H 74.473200 57.692200 41.795100 0
M  V30 9 H 74.582000 56.246200 39.093600 0
M  V30 10 H 74.072300 57.904400 39.324500 0
M  V30 11 H 73.122500 56.604700 40.008000 0
M  V30 12 H 76.885500 56.764300 40.178900 0
M  V30 13 H 76.472300 58.447400 40.420200 0
M  V30 14 H 76.981500 57.475700 41.788400 0
M  V30 15 R 73.480100 53.708600 41.850100 0
M  V30 END ATOM
M  V30 BEGIN BOND
M  V30 1 1 2 1
M  V30 2 1 3 2
M  V30 3 1 4 3
M  V30 4 1 5 3
M  V30 5 1 6 2
M  V30 6 1 7 2
M  V30 7 1 8 3
M  V30 8 1 9 4
M  V30 9 1 10 4
M  V30 10 1 11 4
M  V30 11 1 12 5
M  V30 12 1 13 5
M  V30 13 1 14 5
M  V30 14 1 15 1
M  V30 END BOND
M  V30 END CTAB
M  END
$$$$
R-group 241 (20056-2)
     RDKit          3D

  0  0  0  0  0  0  0  0  0  0999 V3000
M  V30 BEGIN CTAB
M  V30 COUNTS 17 17 0 0 1
M  V30 BEGIN ATOM
M  V30 1 N 73.911800 54.992100 41.716600 0
M  V30 2 C 73.774800 55.778500 42.937000 0
M  V30 3 C 74.271800 57.160700 42.505500 0 CFG=2
M  V30 4 C 73.094800 58.065400 42.111900 0
M  V30 5 C 75.224900 56.855300 41.345600 0 CFG=1
M  V30 6 F 76.471800 57.258000 41.568400 0
M  V30 7 C 75.242900 55.348200 41.240700 0
M  V30 8 H 72.752500 55.787700 43.314400 0
M  V30 9 H 74.417300 55.390300 43.724500 0
M  V30 10 H 74.816800 57.631600 43.324900 0
M  V30 11 H 72.474100 57.610700 41.341900 0
M  V30 12 H 72.472300 58.269600 42.980000 0
M  V30 13 H 73.429200 59.019900 41.725500 0
M  V30 14 H 74.881400 57.269800 40.396900 0
M  V30 15 H 76.010400 54.945300 41.897700 0
M  V30 16 H 75.473400 55.060600 40.218800 0
M  V30 17 R 73.614500 53.567500 41.849900 0
M  V30 END ATOM
M  V30 BEGIN BOND
M  V30 1 1 2 1
M  V30 2 1 3 2
M  V30 3 1 4 3
M  V30 4 1 5 3
M  V30 5 1 6 5
M  V30 6 1 7 1
M  V30 7 1 7 5
M  V30 8 1 8 2
M  V30 9 1 9 2
M  V30 10 1 3 10 CFG=1
M  V30 11 1 11 4
M  V30 12 1 12 4
M  V30 13 1 13 4
M  V30 14 1 5 14 CFG=3
M  V30 15 1 15 7
M  V30 16 1 16 7
M  V30 17 1 17 1
M  V30 END BOND
M  V30 END CTAB
M  END
$$$$
R-group 242 (40531-1)
     RDKit          3D

  0  0  0  0  0  0  0  0  0  0999 V3000
M  V30 BEGIN CTAB
M  V30 COUNTS 13 14 0 0 1
M  V30 BEGIN ATOM
M  V30 1 C 73.949000 55.154000 41.737300 0 CFG=2
M  V30 2 C 75.330500 55.852900 41.723600 0
M  V30 3 C 74.295200 56.990800 41.716000 0 CFG=1
M  V30 4 C 73.537300 56.183900 40.654500 0
M  V30 5 C 73.541500 56.194100 42.783600 0
M  V30 6 H 75.937500 55.758800 42.627400 0
M  V30 7 H 75.931600 55.739300 40.818700 0
M  V30 8 H 74.476400 58.058100 41.724400 0
M  V30 9 H 74.035200 56.094200 39.685800 0
M  V30 10 H 72.475000 56.402400 40.525000 0
M  V30 11 H 72.476200 56.391100 42.924700 0
M  V30 12 H 74.050600 56.058400 43.724700 0
M  V30 13 R 73.638700 53.659000 41.791400 0
M  V30 END ATOM
M  V30 BEGIN BOND
M  V30 1 1 2 1
M  V30 2 1 3 2
M  V30 3 1 4 1
M  V30 4 1 4 3
M  V30 5 1 5 1
M  V30 6 1 5 3
M  V30 7 1 6 2
M  V30 8 1 7 2
M  V30 9 1 3 8 CFG=3
M  V30 10 1 9 4
M  V30 11 1 10 4
M  V30 12 1 11 5
M  V30 13 1 12 5
M  V30 14 1 1 13 CFG=1
M  V30 END BOND
M  V30 END CTAB
M  END
$$$$
R-group 243 (43036-2)
     RDKit          3D

  0  0  0  0  0  0  0  0  0  0999 V3000
M  V30 BEGIN CTAB
M  V30 COUNTS 14 15 0 0 1
M  V30 BEGIN ATOM
M  V30 1 C 74.139800 55.430200 42.026200 0 CFG=1
M  V30 2 C 73.437700 55.931700 43.256800 0
M  V30 3 O 73.279500 57.339600 43.082000 0
M  V30 4 C 73.274100 57.661500 41.700300 0
M  V30 5 C 74.080200 56.574100 41.045700 0 CFG=1
M  V30 6 C 75.415700 56.102700 41.569700 0
M  V30 7 H 74.049000 55.657900 44.123200 0
M  V30 8 H 72.434600 55.512500 43.324700 0
M  V30 9 H 73.673000 58.654900 41.543300 0
M  V30 10 H 72.275300 57.665700 41.281500 0
M  V30 11 H 73.884100 56.416700 39.988500 0
M  V30 12 H 76.064300 55.563100 40.882500 0
M  V30 13 H 75.934300 56.741900 42.282700 0
M  V30 14 R 73.837000 53.949100 41.694300 0
M  V30 END ATOM
M  V30 BEGIN BOND
M  V30 1 1 2 1
M  V30 2 1 3 2
M  V30 3 1 4 3
M  V30 4 1 5 1
M  V30 5 1 5 4
M  V30 6 1 6 1
M  V30 7 1 6 5
M  V30 8 1 7 2
M  V30 9 1 8 2
M  V30 10 1 9 4
M  V30 11 1 10 4
M  V30 12 1 5 11 CFG=3
M  V30 13 1 12 6
M  V30 14 1 13 6
M  V30 15 1 1 14 CFG=3
M  V30 END BOND
M  V30 END CTAB
M  END
$$$$
R-group 244 (3273-2)
     RDKit          3D

  0  0  0  0  0  0  0  0  0  0999 V3000
M  V30 BEGIN CTAB
M  V30 COUNTS 16 16 0 0 1
M  V30 BEGIN ATOM
M  V30 1 C 74.255300 55.180900 41.467400 0 CFG=2
M  V30 2 C 74.186400 56.021900 42.724500 0
M  V30 3 C 73.672200 57.258100 42.781900 0
M  V30 4 C 73.161900 58.028700 41.591100 0
M  V30 5 C 73.718800 57.428200 40.297300 0
M  V30 6 C 73.531600 55.906300 40.289600 0
M  V30 7 H 75.315200 55.130500 41.210500 0
M  V30 8 H 74.551000 55.579200 43.637900 0
M  V30 9 H 73.618900 57.773400 43.724700 0
M  V30 10 H 72.076600 58.058000 41.594200 0
M  V30 11 H 73.463200 59.059000 41.724800 0
M  V30 12 H 73.272200 57.888500 39.418300 0
M  V30 13 H 74.781200 57.655600 40.238500 0
M  V30 14 H 73.867900 55.522400 39.328500 0
M  V30 15 H 72.464700 55.710400 40.335900 0
M  V30 16 R 73.746500 53.727600 41.752600 0
M  V30 END ATOM
M  V30 BEGIN BOND
M  V30 1 1 2 1
M  V30 2 2 3 2
M  V30 3 1 4 3
M  V30 4 1 5 4
M  V30 5 1 6 1
M  V30 6 1 6 5
M  V30 7 1 1 7 CFG=3
M  V30 8 1 8 2
M  V30 9 1 9 3
M  V30 10 1 10 4
M  V30 11 1 11 4
M  V30 12 1 12 5
M  V30 13 1 13 5
M  V30 14 1 14 6
M  V30 15 1 15 6
M  V30 16 1 16 1
M  V30 END BOND
M  V30 END CTAB
M  END
$$$$
R-group 245 (24560-2)
     RDKit          3D

  0  0  0  0  0  0  0  0  0  0999 V3000
M  V30 BEGIN CTAB
M  V30 COUNTS 18 18 0 0 1
M  V30 BEGIN ATOM
M  V30 1 O 73.726900 54.923200 41.802100 0
M  V30 2 C 74.691800 55.560100 40.954500 0 CFG=1
M  V30 3 C 74.086700 55.933200 39.577000 0
M  V30 4 O 72.868500 56.624400 39.769000 0
M  V30 5 C 73.039700 57.862300 40.433300 0
M  V30 6 C 73.677400 57.662200 41.824400 0
M  V30 7 C 74.985600 56.865900 41.683300 0 CFG=1
M  V30 8 O 75.562200 56.531300 42.923400 0
M  V30 9 H 75.613400 54.979800 40.862000 0
M  V30 10 H 74.785700 56.538000 39.000500 0
M  V30 11 H 73.850500 55.091400 38.943200 0
M  V30 12 H 73.665100 58.460200 39.773300 0
M  V30 13 H 72.088100 58.375600 40.529100 0
M  V30 14 H 72.962200 57.144400 42.472900 0
M  V30 15 H 73.849600 58.620500 42.303600 0
M  V30 16 H 75.710600 57.457500 41.127200 0
M  V30 17 H 74.972400 55.910200 43.329200 0
M  V30 18 R 73.587900 53.511600 41.812400 0
M  V30 END ATOM
M  V30 BEGIN BOND
M  V30 1 1 2 1
M  V30 2 1 3 2
M  V30 3 1 4 3
M  V30 4 1 5 4
M  V30 5 1 6 5
M  V30 6 1 7 2
M  V30 7 1 7 6
M  V30 8 1 8 7
M  V30 9 1 2 9 CFG=3
M  V30 10 1 10 3
M  V30 11 1 11 3
M  V30 12 1 12 5
M  V30 13 1 13 5
M  V30 14 1 14 6
M  V30 15 1 15 6
M  V30 16 1 7 16 CFG=3
M  V30 17 1 17 8
M  V30 18 1 18 1
M  V30 END BOND
M  V30 END CTAB
M  END
$$$$
R-group 246 (5956-1)
     RDKit          3D

  0  0  0  0  0  0  0  0  0  0999 V3000
M  V30 BEGIN CTAB
M  V30 COUNTS 9 9 0 0 1
M  V30 BEGIN ATOM
M  V30 1 O 73.072400 54.457500 42.125100 0
M  V30 2 C 74.036000 55.375500 41.983700 0
M  V30 3 N 74.861200 55.809800 42.924600 0
M  V30 4 C 75.741300 56.759900 42.409500 0
M  V30 5 C 75.676500 56.866100 41.052800 0
M  V30 6 S 74.230000 56.167400 40.436100 0
M  V30 7 H 76.473500 57.214200 43.056900 0
M  V30 8 H 76.296500 57.461100 40.408900 0
M  V30 9 R 73.392800 53.139800 41.709500 0
M  V30 END ATOM
M  V30 BEGIN BOND
M  V30 1 1 2 1
M  V30 2 2 3 2
M  V30 3 1 4 3
M  V30 4 2 5 4
M  V30 5 1 6 2
M  V30 6 1 6 5
M  V30 7 1 7 4
M  V30 8 1 8 5
M  V30 9 1 9 1
M  V30 END BOND
M  V30 END CTAB
M  END
$$$$
R-group 247 (42989-3)
     RDKit          3D

  0  0  0  0  0  0  0  0  0  0999 V3000
M  V30 BEGIN CTAB
M  V30 COUNTS 15 15 0 0 1
M  V30 BEGIN ATOM
M  V30 1 C 73.969200 55.361000 42.329000 0 CFG=1
M  V30 2 C 75.173900 56.223800 42.029600 0 CFG=2
M  V30 3 C 75.865400 57.017200 43.120900 0
M  V30 4 C 73.816000 56.612100 41.465400 0 CFG=2
M  V30 5 C 73.026600 57.811700 41.965300 0
M  V30 6 H 73.561900 55.463200 43.325200 0
M  V30 7 H 75.883500 55.798300 41.322400 0
M  V30 8 H 75.175400 57.653500 43.675300 0
M  V30 9 H 76.350700 56.338700 43.822900 0
M  V30 10 H 76.629600 57.657400 42.680700 0
M  V30 11 H 73.745100 56.506300 40.385900 0
M  V30 12 H 72.496800 57.591900 42.893100 0
M  V30 13 H 73.672900 58.670600 42.124500 0
M  V30 14 H 72.293400 58.101600 41.213900 0
M  V30 15 R 73.840200 53.925400 41.792600 0
M  V30 END ATOM
M  V30 BEGIN BOND
M  V30 1 1 2 1
M  V30 2 1 3 2
M  V30 3 1 4 1
M  V30 4 1 4 2
M  V30 5 1 5 4
M  V30 6 1 1 6 CFG=1
M  V30 7 1 2 7 CFG=3
M  V30 8 1 8 3
M  V30 9 1 9 3
M  V30 10 1 10 3
M  V30 11 1 4 11 CFG=3
M  V30 12 1 12 5
M  V30 13 1 13 5
M  V30 14 1 14 5
M  V30 15 1 15 1
M  V30 END BOND
M  V30 END CTAB
M  END
$$$$
R-group 248 (3494-1)
     RDKit          3D

  0  0  0  0  0  0  0  0  0  0999 V3000
M  V30 BEGIN CTAB
M  V30 COUNTS 10 9 0 0 1
M  V30 BEGIN ATOM
M  V30 1 N 73.669400 54.811300 42.143500 0
M  V30 2 C 75.011600 55.358900 42.038200 0
M  V30 3 C 74.905300 56.719900 41.367200 0
M  V30 4 F 74.072100 57.492600 42.068900 0
M  V30 5 F 76.120500 57.257600 41.324800 0
M  V30 6 F 74.447200 56.585900 40.122200 0
M  V30 7 H 73.282900 55.047700 43.055100 0
M  V30 8 H 75.449700 55.441700 43.032700 0
M  V30 9 H 75.672400 54.730900 41.450600 0
M  V30 10 R 73.530400 53.384300 41.925200 0
M  V30 END ATOM
M  V30 BEGIN BOND
M  V30 1 1 2 1
M  V30 2 1 3 2
M  V30 3 1 4 3
M  V30 4 1 5 3
M  V30 5 1 6 3
M  V30 6 1 7 1
M  V30 7 1 8 2
M  V30 8 1 9 2
M  V30 9 1 10 1
M  V30 END BOND
M  V30 END CTAB
M  END
$$$$
R-group 249 (7516-1)
     RDKit          3D

  0  0  0  0  0  0  0  0  0  0999 V3000
M  V30 BEGIN CTAB
M  V30 COUNTS 12 12 0 0 1
M  V30 BEGIN ATOM
M  V30 1 N 72.871200 54.074300 42.006900 0
M  V30 2 C 73.780800 55.118600 41.855000 0
M  V30 3 C 74.790900 55.169500 40.863400 0
M  V30 4 N 75.799300 56.057900 40.924500 0
M  V30 5 C 75.813000 56.858000 41.982500 0
M  V30 6 C 74.729300 56.918300 42.864000 0
M  V30 7 N 73.701500 56.057200 42.806600 0
M  V30 8 H 72.345700 54.156500 42.866900 0
M  V30 9 H 74.853300 54.486000 40.042500 0
M  V30 10 H 76.639900 57.549600 42.065300 0
M  V30 11 H 74.715300 57.651800 43.653600 0
M  V30 12 R 73.282000 52.735300 41.690500 0
M  V30 END ATOM
M  V30 BEGIN BOND
M  V30 1 1 2 1
M  V30 2 2 3 2
M  V30 3 1 4 3
M  V30 4 2 5 4
M  V30 5 1 6 5
M  V30 6 1 7 2
M  V30 7 2 7 6
M  V30 8 1 8 1
M  V30 9 1 9 3
M  V30 10 1 10 5
M  V30 11 1 11 6
M  V30 12 1 12 1
M  V30 END BOND
M  V30 END CTAB
M  END
$$$$
R-group 250 (2449-1)
     RDKit          3D

  0  0  0  0  0  0  0  0  0  0999 V3000
M  V30 BEGIN CTAB
M  V30 COUNTS 19 19 0 0 1
M  V30 BEGIN ATOM
M  V30 1 C 73.480800 54.630300 41.330600 0 CFG=1
M  V30 2 C 73.191600 55.385800 42.622100 0
M  V30 3 C 73.272700 56.893700 42.484300 0
M  V30 4 C 74.598100 57.279400 41.868900 0 CFG=1
M  V30 5 O 75.668500 56.857900 42.717400 0
M  V30 6 C 74.818500 56.632700 40.507900 0
M  V30 7 C 74.782100 55.114900 40.648600 0
M  V30 8 H 72.662000 54.881800 40.652600 0
M  V30 9 H 72.187900 55.105800 42.932700 0
M  V30 10 H 73.891900 55.100100 43.398300 0
M  V30 11 H 72.480400 57.277700 41.845000 0
M  V30 12 H 73.142000 57.371600 43.455000 0
M  V30 13 H 74.471700 58.350500 41.724800 0
M  V30 14 H 74.044300 56.958800 39.811600 0
M  V30 15 H 75.773100 56.950900 40.091100 0
M  V30 16 H 75.662200 54.770300 41.194400 0
M  V30 17 H 74.872300 54.732100 39.646200 0
M  V30 18 H 76.476800 57.232000 42.399500 0
M  V30 19 R 73.407900 53.118000 41.626500 0
M  V30 END ATOM
M  V30 BEGIN BOND
M  V30 1 1 2 1
M  V30 2 1 3 2
M  V30 3 1 4 3
M  V30 4 1 5 4
M  V30 5 1 6 4
M  V30 6 1 7 1
M  V30 7 1 7 6
M  V30 8 1 1 8 CFG=3
M  V30 9 1 9 2
M  V30 10 1 10 2
M  V30 11 1 11 3
M  V30 12 1 12 3
M  V30 13 1 4 13 CFG=3
M  V30 14 1 14 6
M  V30 15 1 15 6
M  V30 16 1 16 7
M  V30 17 1 17 7
M  V30 18 1 18 5
M  V30 19 1 19 1
M  V30 END BOND
M  V30 END CTAB
M  END
$$$$
R-group 251 (1949-1)
     RDKit          3D

  0  0  0  0  0  0  0  0  0  0999 V3000
M  V30 BEGIN CTAB
M  V30 COUNTS 14 13 0 0 1
M  V30 BEGIN ATOM
M  V30 1 C 73.375000 55.028600 42.113500 0
M  V30 2 C 74.660900 55.814900 42.464100 0
M  V30 3 C 75.671400 55.905200 41.318700 0
M  V30 4 C 74.301600 57.226600 42.924900 0
M  V30 5 F 75.271100 55.257900 43.506700 0
M  V30 6 H 72.666800 55.170800 42.924700 0
M  V30 7 H 72.892600 55.528900 41.273100 0
M  V30 8 H 75.225500 56.323600 40.416000 0
M  V30 9 H 76.070400 54.926700 41.084600 0
M  V30 10 H 76.520300 56.533400 41.591300 0
M  V30 11 H 73.983500 57.861800 42.097000 0
M  V30 12 H 73.507000 57.224000 43.672200 0
M  V30 13 H 75.185800 57.658800 43.386400 0
M  V30 14 R 73.418400 53.499800 41.830400 0
M  V30 END ATOM
M  V30 BEGIN BOND
M  V30 1 1 2 1
M  V30 2 1 3 2
M  V30 3 1 4 2
M  V30 4 1 5 2
M  V30 5 1 6 1
M  V30 6 1 7 1
M  V30 7 1 8 3
M  V30 8 1 9 3
M  V30 9 1 10 3
M  V30 10 1 11 4
M  V30 11 1 12 4
M  V30 12 1 13 4
M  V30 13 1 14 1
M  V30 END BOND
M  V30 END CTAB
M  END
$$$$
R-group 252 (1295-2)
     RDKit          3D

  0  0  0  0  0  0  0  0  0  0999 V3000
M  V30 BEGIN CTAB
M  V30 COUNTS 18 17 0 0 1
M  V30 BEGIN ATOM
M  V30 1 C 73.358100 57.663200 40.315700 0
M  V30 2 C 73.299400 58.031300 41.801300 0
M  V30 3 C 74.013000 57.081900 42.771100 0 CFG=2
M  V30 4 C 75.524700 57.258300 42.964000 0
M  V30 5 N 73.672600 55.710500 42.524900 0
M  V30 6 C 74.237000 54.872100 41.674600 0
M  V30 7 O 75.135000 55.197000 40.905800 0
M  V30 8 H 72.955100 58.486500 39.743800 0
M  V30 9 H 74.374600 57.488300 39.962400 0
M  V30 10 H 72.761300 56.777100 40.101200 0
M  V30 11 H 72.248700 58.078300 42.084300 0
M  V30 12 H 73.672200 59.033400 41.958400 0
M  V30 13 H 73.549300 57.295200 43.724400 0
M  V30 14 H 75.672700 58.011900 43.725000 0
M  V30 15 H 76.016000 56.352800 43.333400 0
M  V30 16 H 76.015100 57.602700 42.050200 0
M  V30 17 H 72.992400 55.311200 43.159000 0
M  V30 18 R 73.737700 53.446900 41.812800 0
M  V30 END ATOM
M  V30 BEGIN BOND
M  V30 1 1 2 1
M  V30 2 1 3 2
M  V30 3 1 4 3
M  V30 4 1 5 3
M  V30 5 1 6 5
M  V30 6 2 7 6
M  V30 7 1 8 1
M  V30 8 1 9 1
M  V30 9 1 10 1
M  V30 10 1 11 2
M  V30 11 1 12 2
M  V30 12 1 3 13 CFG=1
M  V30 13 1 14 4
M  V30 14 1 15 4
M  V30 15 1 16 4
M  V30 16 1 17 5
M  V30 17 1 18 6
M  V30 END BOND
M  V30 END CTAB
M  END
$$$$
R-group 253 (2372-1)
     RDKit          3D

  0  0  0  0  0  0  0  0  0  0999 V3000
M  V30 BEGIN CTAB
M  V30 COUNTS 12 12 0 0 1
M  V30 BEGIN ATOM
M  V30 1 C 73.906800 54.906500 41.743400 0
M  V30 2 C 74.551700 55.638400 42.784100 0
M  V30 3 N 74.679300 56.907900 42.524400 0
M  V30 4 N 74.100800 57.047700 41.329400 0
M  V30 5 C 73.672500 55.870300 40.784700 0
M  V30 6 C 73.004800 55.896800 39.443100 0
M  V30 7 H 74.909000 55.297600 43.743000 0
M  V30 8 H 73.497000 55.237900 38.730600 0
M  V30 9 H 71.959100 55.602200 39.523200 0
M  V30 10 H 73.025800 56.898800 39.011900 0
M  V30 11 H 74.042300 57.948300 40.877000 0
M  V30 12 R 73.547600 53.433200 41.793400 0
M  V30 END ATOM
M  V30 BEGIN BOND
M  V30 1 1 2 1
M  V30 2 2 3 2
M  V30 3 1 4 3
M  V30 4 2 5 1
M  V30 5 1 5 4
M  V30 6 1 6 5
M  V30 7 1 7 2
M  V30 8 1 8 6
M  V30 9 1 9 6
M  V30 10 1 10 6
M  V30 11 1 11 4
M  V30 12 1 12 1
M  V30 END BOND
M  V30 END CTAB
M  END
$$$$
R-group 254 (8232-1)
     RDKit          3D

  0  0  0  0  0  0  0  0  0  0999 V3000
M  V30 BEGIN CTAB
M  V30 COUNTS 16 16 0 0 1
M  V30 BEGIN ATOM
M  V30 1 C 73.998500 55.171100 41.488100 0 CFG=2
M  V30 2 O 73.273100 55.762400 40.421200 0
M  V30 3 C 73.762200 56.041500 42.733700 0
M  V30 4 C 74.538300 57.326400 42.444400 0
M  V30 5 C 75.775100 56.858600 41.661300 0
M  V30 6 F 76.827200 56.829200 42.467300 0
M  V30 7 F 76.064900 57.658100 40.636700 0
M  V30 8 C 75.476400 55.442000 41.178400 0
M  V30 9 H 72.712300 56.229600 42.945300 0
M  V30 10 H 74.182500 55.568400 43.620400 0
M  V30 11 H 74.794400 57.876200 43.352100 0
M  V30 12 H 73.936900 57.993700 41.828200 0
M  V30 13 H 76.071800 54.765900 41.768200 0
M  V30 14 H 75.765200 55.308700 40.139200 0
M  V30 15 H 73.500500 55.311800 39.620000 0
M  V30 16 R 73.579800 53.665400 41.667000 0
M  V30 END ATOM
M  V30 BEGIN BOND
M  V30 1 1 2 1
M  V30 2 1 3 1
M  V30 3 1 4 3
M  V30 4 1 5 4
M  V30 5 1 6 5
M  V30 6 1 7 5
M  V30 7 1 8 1
M  V30 8 1 8 5
M  V30 9 1 9 3
M  V30 10 1 10 3
M  V30 11 1 11 4
M  V30 12 1 12 4
M  V30 13 1 13 8
M  V30 14 1 14 8
M  V30 15 1 15 2
M  V30 16 1 1 16 CFG=1
M  V30 END BOND
M  V30 END CTAB
M  END
$$$$
R-group 255 (5737-2)
     RDKit          3D

  0  0  0  0  0  0  0  0  0  0999 V3000
M  V30 BEGIN CTAB
M  V30 COUNTS 19 19 0 0 1
M  V30 BEGIN ATOM
M  V30 1 C 73.823000 54.897800 41.628700 0
M  V30 2 C 74.103200 55.585200 40.507000 0
M  V30 3 C 74.300600 57.070700 40.431700 0 CFG=1
M  V30 4 C 73.152300 57.658000 39.627900 0
M  V30 5 C 74.406400 57.703400 41.814700 0
M  V30 6 C 73.453400 57.121700 42.815300 0
M  V30 7 C 73.589800 55.612900 42.942600 0
M  V30 8 H 74.155400 55.130900 39.537100 0
M  V30 9 H 75.228600 57.257100 39.889800 0
M  V30 10 H 73.077200 57.194100 38.646300 0
M  V30 11 H 72.195700 57.503700 40.125800 0
M  V30 12 H 73.273200 58.728300 39.474600 0
M  V30 13 H 75.428100 57.657300 42.188800 0
M  V30 14 H 74.072200 58.736600 41.767900 0
M  V30 15 H 72.472700 57.375700 42.460300 0
M  V30 16 H 73.552900 57.631700 43.765300 0
M  V30 17 H 72.631600 55.258500 43.315500 0
M  V30 18 H 74.367200 55.359900 43.660900 0
M  V30 19 R 73.562800 53.395100 41.660600 0
M  V30 END ATOM
M  V30 BEGIN BOND
M  V30 1 2 2 1
M  V30 2 1 3 2
M  V30 3 1 4 3
M  V30 4 1 5 3
M  V30 5 1 6 5
M  V30 6 1 7 1
M  V30 7 1 7 6
M  V30 8 1 8 2
M  V30 9 1 3 9 CFG=3
M  V30 10 1 10 4
M  V30 11 1 11 4
M  V30 12 1 12 4
M  V30 13 1 13 5
M  V30 14 1 14 5
M  V30 15 1 15 6
M  V30 16 1 16 6
M  V30 17 1 17 7
M  V30 18 1 18 7
M  V30 19 1 19 1
M  V30 END BOND
M  V30 END CTAB
M  END
$$$$
R-group 256 (12987-2)
     RDKit          3D

  0  0  0  0  0  0  0  0  0  0999 V3000
M  V30 BEGIN CTAB
M  V30 COUNTS 13 13 0 0 1
M  V30 BEGIN ATOM
M  V30 1 C 73.603600 54.929800 41.976400 0 CFG=1
M  V30 2 C 74.943100 55.597300 42.344700 0
M  V30 3 C 74.360500 56.876100 41.751200 0 CFG=2
M  V30 4 O 73.619000 57.658100 42.646100 0
M  V30 5 C 73.542400 55.976600 40.828900 0
M  V30 6 H 72.871800 55.196800 42.743400 0
M  V30 7 H 75.160300 55.644500 43.411800 0
M  V30 8 H 75.793900 55.219900 41.774200 0
M  V30 9 H 75.095900 57.495200 41.234500 0
M  V30 10 H 74.112200 55.726600 39.936600 0
M  V30 11 H 72.560000 56.346400 40.524800 0
M  V30 12 H 73.095600 57.061500 43.159400 0
M  V30 13 R 73.494900 53.422500 41.736900 0
M  V30 END ATOM
M  V30 BEGIN BOND
M  V30 1 1 2 1
M  V30 2 1 3 2
M  V30 3 1 4 3
M  V30 4 1 5 1
M  V30 5 1 5 3
M  V30 6 1 1 6 CFG=1
M  V30 7 1 7 2
M  V30 8 1 8 2
M  V30 9 1 3 9 CFG=3
M  V30 10 1 10 5
M  V30 11 1 11 5
M  V30 12 1 12 4
M  V30 13 1 13 1
M  V30 END BOND
M  V30 END CTAB
M  END
$$$$
R-group 257 (6971-1)
     RDKit          3D

  0  0  0  0  0  0  0  0  0  0999 V3000
M  V30 BEGIN CTAB
M  V30 COUNTS 13 13 0 0 1
M  V30 BEGIN ATOM
M  V30 1 C 72.647700 54.238600 41.990200 0
M  V30 2 C 73.676600 55.336000 41.878000 0
M  V30 3 C 74.563300 55.657700 42.924500 0
M  V30 4 C 75.672300 56.457900 42.610000 0
M  V30 5 C 75.799600 56.860400 41.269400 0
M  V30 6 N 74.872600 56.587300 40.329000 0
M  V30 7 N 73.809500 55.859400 40.639800 0
M  V30 8 H 71.816100 54.451600 41.331100 0
M  V30 9 H 72.196700 54.204400 42.963100 0
M  V30 10 H 74.450400 55.245900 43.919000 0
M  V30 11 H 76.442400 56.711300 43.328700 0
M  V30 12 H 76.644900 57.459000 40.959500 0
M  V30 13 R 73.230100 52.866200 41.620100 0
M  V30 END ATOM
M  V30 BEGIN BOND
M  V30 1 1 2 1
M  V30 2 2 3 2
M  V30 3 1 4 3
M  V30 4 2 5 4
M  V30 5 1 6 5
M  V30 6 1 7 2
M  V30 7 2 7 6
M  V30 8 1 8 1
M  V30 9 1 9 1
M  V30 10 1 10 3
M  V30 11 1 11 4
M  V30 12 1 12 5
M  V30 13 1 13 1
M  V30 END BOND
M  V30 END CTAB
M  END
$$$$
R-group 258 (34438-1)
     RDKit          3D

  0  0  0  0  0  0  0  0  0  0999 V3000
M  V30 BEGIN CTAB
M  V30 COUNTS 15 15 0 0 1
M  V30 BEGIN ATOM
M  V30 1 C 73.741400 54.701800 41.493800 0
M  V30 2 N 74.473600 55.474400 42.368900 0
M  V30 3 N 74.447100 56.778900 42.077300 0
M  V30 4 C 73.674100 56.825500 41.008600 0
M  V30 5 C 73.161200 58.128400 40.536500 0
M  V30 6 C 73.272700 55.554600 40.524700 0
M  V30 7 C 72.361500 55.334700 39.345600 0
M  V30 8 H 72.090500 58.057900 40.365400 0
M  V30 9 H 73.272400 58.858100 41.327300 0
M  V30 10 H 73.661000 58.448700 39.618800 0
M  V30 11 H 72.025900 56.279000 38.924700 0
M  V30 12 H 72.846800 54.779800 38.542900 0
M  V30 13 H 71.450200 54.808300 39.627900 0
M  V30 14 H 74.953800 55.128400 43.187000 0
M  V30 15 R 73.527300 53.237100 41.723100 0
M  V30 END ATOM
M  V30 BEGIN BOND
M  V30 1 1 2 1
M  V30 2 1 3 2
M  V30 3 2 4 3
M  V30 4 1 5 4
M  V30 5 2 6 1
M  V30 6 1 6 4
M  V30 7 1 7 6
M  V30 8 1 8 5
M  V30 9 1 9 5
M  V30 10 1 10 5
M  V30 11 1 11 7
M  V30 12 1 12 7
M  V30 13 1 13 7
M  V30 14 1 14 2
M  V30 15 1 15 1
M  V30 END BOND
M  V30 END CTAB
M  END
$$$$
R-group 259 (4550-1)
     RDKit          3D

  0  0  0  0  0  0  0  0  0  0999 V3000
M  V30 BEGIN CTAB
M  V30 COUNTS 18 17 0 0 1
M  V30 BEGIN ATOM
M  V30 1 C 73.603600 57.734200 39.351200 0
M  V30 2 C 72.768200 57.656600 40.628000 0
M  V30 3 C 73.450600 58.160000 41.913500 0
M  V30 4 C 73.699700 57.159400 43.024500 0
M  V30 5 C 74.406700 55.936500 42.463200 0
M  V30 6 O 75.507400 56.033500 41.924500 0
M  V30 7 N 73.663300 54.833400 42.524600 0
M  V30 8 H 73.120200 57.150700 38.566400 0
M  V30 9 H 73.672700 58.762400 38.993100 0
M  V30 10 H 74.603300 57.323400 39.489900 0
M  V30 11 H 72.472400 56.618000 40.702500 0
M  V30 12 H 71.861100 58.244600 40.524600 0
M  V30 13 H 72.893800 59.017200 42.292500 0
M  V30 14 H 74.466300 58.458000 41.724600 0
M  V30 15 H 72.780700 56.898100 43.550400 0
M  V30 16 H 74.362900 57.657600 43.724500 0
M  V30 17 H 72.869400 54.891400 43.153800 0
M  V30 18 R 73.768100 53.566800 41.836400 0
M  V30 END ATOM
M  V30 BEGIN BOND
M  V30 1 1 2 1
M  V30 2 1 3 2
M  V30 3 1 4 3
M  V30 4 1 5 4
M  V30 5 2 6 5
M  V30 6 1 7 5
M  V30 7 1 8 1
M  V30 8 1 9 1
M  V30 9 1 10 1
M  V30 10 1 11 2
M  V30 11 1 12 2
M  V30 12 1 13 3
M  V30 13 1 14 3
M  V30 14 1 15 4
M  V30 15 1 16 4
M  V30 16 1 17 7
M  V30 17 1 18 7
M  V30 END BOND
M  V30 END CTAB
M  END
$$$$
R-group 260 (31007-4)
     RDKit          3D

  0  0  0  0  0  0  0  0  0  0999 V3000
M  V30 BEGIN CTAB
M  V30 COUNTS 21 21 0 0 1
M  V30 BEGIN ATOM
M  V30 1 C 72.587700 56.709000 39.338600 0
M  V30 2 C 73.896300 57.402200 39.732800 0
M  V30 3 C 74.576900 57.012700 41.077200 0 CFG=1
M  V30 4 C 73.714200 57.258000 42.337100 0
M  V30 5 C 73.422600 55.869400 42.936600 0
M  V30 6 C 73.673000 54.926300 41.769400 0 CFG=1
M  V30 7 C 74.925100 55.526400 41.126400 0
M  V30 8 H 72.116700 57.257900 38.546500 0
M  V30 9 H 72.747300 55.686900 38.994000 0
M  V30 10 H 71.843200 56.717200 40.125200 0
M  V30 11 H 73.670100 58.458300 39.731800 0
M  V30 12 H 74.609200 57.262000 38.923700 0
M  V30 13 H 75.500600 57.587600 41.162900 0
M  V30 14 H 72.790100 57.775100 42.079200 0
M  V30 15 H 74.231500 57.885800 43.063200 0
M  V30 16 H 72.408900 55.789700 43.324500 0
M  V30 17 H 74.117400 55.656900 43.746300 0
M  V30 18 H 72.841900 55.118700 41.121400 0
M  V30 19 H 75.794500 55.358700 41.763800 0
M  V30 20 H 75.177400 55.168000 40.136300 0
M  V30 21 R 73.539000 53.406600 41.957900 0
M  V30 END ATOM
M  V30 BEGIN BOND
M  V30 1 1 2 1
M  V30 2 1 3 2
M  V30 3 1 4 3
M  V30 4 1 5 4
M  V30 5 1 6 5
M  V30 6 1 7 3
M  V30 7 1 7 6
M  V30 8 1 8 1
M  V30 9 1 9 1
M  V30 10 1 10 1
M  V30 11 1 11 2
M  V30 12 1 12 2
M  V30 13 1 3 13 CFG=1
M  V30 14 1 14 4
M  V30 15 1 15 4
M  V30 16 1 16 5
M  V30 17 1 17 5
M  V30 18 1 6 18 CFG=3
M  V30 19 1 19 7
M  V30 20 1 20 7
M  V30 21 1 21 6
M  V30 END BOND
M  V30 END CTAB
M  END
$$$$
R-group 261 (35213-2)
     RDKit          3D

  0  0  0  0  0  0  0  0  0  0999 V3000
M  V30 BEGIN CTAB
M  V30 COUNTS 15 15 0 0 1
M  V30 BEGIN ATOM
M  V30 1 O 73.135900 54.157000 42.125300 0
M  V30 2 C 74.176000 54.962600 41.622800 0 CFG=1
M  V30 3 C 73.738100 55.564600 40.307900 0
M  V30 4 C 73.591200 56.869300 40.183300 0
M  V30 5 C 73.876300 57.772800 41.363900 0
M  V30 6 O 73.671900 57.122600 42.601600 0
M  V30 7 C 74.496000 55.980000 42.730500 0
M  V30 8 H 75.105200 54.429200 41.443600 0
M  V30 9 H 73.530500 54.939800 39.459100 0
M  V30 10 H 73.319100 57.323300 39.239500 0
M  V30 11 H 74.936400 58.008700 41.326500 0
M  V30 12 H 73.270100 58.676700 41.320300 0
M  V30 13 H 74.359100 55.532600 43.716200 0
M  V30 14 H 75.544900 56.282500 42.678900 0
M  V30 15 R 73.299800 52.779700 41.922300 0
M  V30 END ATOM
M  V30 BEGIN BOND
M  V30 1 1 2 1
M  V30 2 1 3 2
M  V30 3 2 4 3
M  V30 4 1 5 4
M  V30 5 1 6 5
M  V30 6 1 7 2
M  V30 7 1 7 6
M  V30 8 1 2 8 CFG=3
M  V30 9 1 9 3
M  V30 10 1 10 4
M  V30 11 1 11 5
M  V30 12 1 12 5
M  V30 13 1 13 7
M  V30 14 1 14 7
M  V30 15 1 15 1
M  V30 END BOND
M  V30 END CTAB
M  END
$$$$
R-group 262 (1941-1)
     RDKit          3D

  0  0  0  0  0  0  0  0  0  0999 V3000
M  V30 BEGIN CTAB
M  V30 COUNTS 17 16 0 0 1
M  V30 BEGIN ATOM
M  V30 1 C 76.783900 57.416300 40.929600 0
M  V30 2 C 75.327900 57.027000 41.080200 0
M  V30 3 C 75.171100 55.539500 41.440300 0
M  V30 4 C 73.702100 55.071900 41.535900 0 CFG=1
M  V30 5 C 72.868600 55.689100 40.387500 0
M  V30 6 H 76.873100 58.458000 40.668600 0
M  V30 7 H 77.297400 57.258000 41.870800 0
M  V30 8 H 77.263900 56.857500 40.126300 0
M  V30 9 H 74.856600 57.257500 40.126900 0
M  V30 10 H 74.843700 57.650300 41.833300 0
M  V30 11 H 75.670400 55.348200 42.391500 0
M  V30 12 H 75.709400 54.955100 40.699900 0
M  V30 13 H 73.310600 55.493400 42.463700 0
M  V30 14 H 73.346000 55.542900 39.418800 0
M  V30 15 H 71.873000 55.257400 40.319800 0
M  V30 16 H 72.716300 56.760000 40.524600 0
M  V30 17 R 73.513100 53.520500 41.648100 0
M  V30 END ATOM
M  V30 BEGIN BOND
M  V30 1 1 2 1
M  V30 2 1 3 2
M  V30 3 1 4 3
M  V30 4 1 5 4
M  V30 5 1 6 1
M  V30 6 1 7 1
M  V30 7 1 8 1
M  V30 8 1 9 2
M  V30 9 1 10 2
M  V30 10 1 11 3
M  V30 11 1 12 3
M  V30 12 1 4 13 CFG=1
M  V30 13 1 14 5
M  V30 14 1 15 5
M  V30 15 1 16 5
M  V30 16 1 17 4
M  V30 END BOND
M  V30 END CTAB
M  END
$$$$
R-group 263 (34312-2)
     RDKit          3D

  0  0  0  0  0  0  0  0  0  0999 V3000
M  V30 BEGIN CTAB
M  V30 COUNTS 15 15 0 0 1
M  V30 BEGIN ATOM
M  V30 1 C 73.843400 55.349100 41.919700 0 CFG=1
M  V30 2 C 73.256500 55.963600 43.188500 0
M  V30 3 F 73.272300 57.294900 43.109400 0
M  V30 4 C 75.303900 55.749400 41.811700 0
M  V30 5 C 75.899100 56.136700 40.489900 0
M  V30 6 C 75.729400 57.179300 41.549300 0
M  V30 7 H 73.316600 55.846900 41.104400 0
M  V30 8 H 72.218200 55.661800 43.325000 0
M  V30 9 H 73.832400 55.658800 44.061100 0
M  V30 10 H 75.943600 55.258000 42.535100 0
M  V30 11 H 76.872200 55.718400 40.283400 0
M  V30 12 H 75.243400 56.247800 39.630000 0
M  V30 13 H 74.952200 57.910800 41.352600 0
M  V30 14 H 76.627000 57.550700 42.040100 0
M  V30 15 R 73.562400 53.808800 41.793000 0
M  V30 END ATOM
M  V30 BEGIN BOND
M  V30 1 1 2 1
M  V30 2 1 3 2
M  V30 3 1 4 1
M  V30 4 1 5 4
M  V30 5 1 6 4
M  V30 6 1 6 5
M  V30 7 1 1 7 CFG=3
M  V30 8 1 8 2
M  V30 9 1 9 2
M  V30 10 1 10 4
M  V30 11 1 11 5
M  V30 12 1 12 5
M  V30 13 1 13 6
M  V30 14 1 14 6
M  V30 15 1 15 1
M  V30 END BOND
M  V30 END CTAB
M  END
$$$$
R-group 264 (25215-3)
     RDKit          3D

  0  0  0  0  0  0  0  0  0  0999 V3000
M  V30 BEGIN CTAB
M  V30 COUNTS 16 16 0 0 1
M  V30 BEGIN ATOM
M  V30 1 C 73.893400 55.107200 42.048100 0 CFG=1
M  V30 2 C 75.313200 55.640500 42.245400 0
M  V30 3 C 75.150200 57.076400 41.784500 0
M  V30 4 C 74.144400 56.950900 40.632600 0 CFG=2
M  V30 5 C 72.990500 57.958400 40.636300 0
M  V30 6 O 73.572800 55.668300 40.783600 0
M  V30 7 H 73.245500 55.560800 42.801400 0
M  V30 8 H 75.667900 55.563800 43.273600 0
M  V30 9 H 76.017600 55.127900 41.592700 0
M  V30 10 H 74.731900 57.657900 42.606000 0
M  V30 11 H 76.091500 57.535600 41.480600 0
M  V30 12 H 74.654100 56.963200 39.668300 0
M  V30 13 H 73.272200 58.857200 40.098400 0
M  V30 14 H 72.121000 57.546000 40.125000 0
M  V30 15 H 72.674200 58.224200 41.645400 0
M  V30 16 R 73.648400 53.570500 42.030600 0
M  V30 END ATOM
M  V30 BEGIN BOND
M  V30 1 1 2 1
M  V30 2 1 3 2
M  V30 3 1 4 3
M  V30 4 1 5 4
M  V30 5 1 6 1
M  V30 6 1 6 4
M  V30 7 1 1 7 CFG=1
M  V30 8 1 8 2
M  V30 9 1 9 2
M  V30 10 1 10 3
M  V30 11 1 11 3
M  V30 12 1 4 12 CFG=3
M  V30 13 1 13 5
M  V30 14 1 14 5
M  V30 15 1 15 5
M  V30 16 1 16 1
M  V30 END BOND
M  V30 END CTAB
M  END
$$$$
R-group 265 (41904-3)
     RDKit          3D

  0  0  0  0  0  0  0  0  0  0999 V3000
M  V30 BEGIN CTAB
M  V30 COUNTS 16 16 0 0 1
M  V30 BEGIN ATOM
M  V30 1 C 76.069800 56.919400 43.350900 0
M  V30 2 O 74.798200 56.634900 42.840000 0
M  V30 3 C 74.868300 55.648400 41.845100 0 CFG=2
M  V30 4 C 74.716900 56.272200 40.470300 0
M  V30 5 C 73.240400 55.894600 40.497100 0
M  V30 6 C 73.498400 54.974600 41.726200 0 CFG=1
M  V30 7 H 75.943200 57.658000 44.124500 0
M  V30 8 H 76.478300 56.026000 43.821800 0
M  V30 9 H 76.736400 57.307900 42.576900 0
M  V30 10 H 75.712800 54.965900 41.918300 0
M  V30 11 H 74.919300 57.338400 40.442100 0
M  V30 12 H 75.300700 55.749700 39.724700 0
M  V30 13 H 72.914500 55.430500 39.568200 0
M  V30 14 H 72.632800 56.773600 40.716900 0
M  V30 15 H 72.876300 55.335600 42.547800 0
M  V30 16 R 73.405500 53.430100 41.693300 0
M  V30 END ATOM
M  V30 BEGIN BOND
M  V30 1 1 2 1
M  V30 2 1 3 2
M  V30 3 1 4 3
M  V30 4 1 5 4
M  V30 5 1 6 3
M  V30 6 1 6 5
M  V30 7 1 7 1
M  V30 8 1 8 1
M  V30 9 1 9 1
M  V30 10 1 3 10 CFG=3
M  V30 11 1 11 4
M  V30 12 1 12 4
M  V30 13 1 13 5
M  V30 14 1 14 5
M  V30 15 1 6 15 CFG=1
M  V30 16 1 16 6
M  V30 END BOND
M  V30 END CTAB
M  END
$$$$
R-group 266 (1141-1)
     RDKit          3D

  0  0  0  0  0  0  0  0  0  0999 V3000
M  V30 BEGIN CTAB
M  V30 COUNTS 15 15 0 0 1
M  V30 BEGIN ATOM
M  V30 1 C 73.933700 55.282000 41.836100 0
M  V30 2 C 73.760800 56.044300 43.149300 0
M  V30 3 C 74.384300 57.406300 42.840300 0
M  V30 4 C 75.628100 57.060000 42.020600 0
M  V30 5 C 75.293400 55.754900 41.293600 0
M  V30 6 H 73.187700 55.714800 41.169200 0
M  V30 7 H 72.717800 56.094100 43.462700 0
M  V30 8 H 74.322200 55.562900 43.946400 0
M  V30 9 H 73.695500 57.999200 42.236500 0
M  V30 10 H 74.631600 57.990600 43.724600 0
M  V30 11 H 75.915400 57.848100 41.324800 0
M  V30 12 H 76.471500 56.899300 42.692000 0
M  V30 13 H 76.070500 55.025100 41.488200 0
M  V30 14 H 75.251000 55.920500 40.217200 0
M  V30 15 R 73.669200 53.746100 41.878300 0
M  V30 END ATOM
M  V30 BEGIN BOND
M  V30 1 1 2 1
M  V30 2 1 3 2
M  V30 3 1 4 3
M  V30 4 1 5 1
M  V30 5 1 5 4
M  V30 6 1 6 1
M  V30 7 1 7 2
M  V30 8 1 8 2
M  V30 9 1 9 3
M  V30 10 1 10 3
M  V30 11 1 11 4
M  V30 12 1 12 4
M  V30 13 1 13 5
M  V30 14 1 14 5
M  V30 15 1 15 1
M  V30 END BOND
M  V30 END CTAB
M  END
$$$$
R-group 267 (10275-12)
     RDKit          3D

  0  0  0  0  0  0  0  0  0  0999 V3000
M  V30 BEGIN CTAB
M  V30 COUNTS 18 19 0 0 1
M  V30 BEGIN ATOM
M  V30 1 C 73.859100 55.194200 42.029100 0 CFG=1
M  V30 2 C 75.364200 55.574800 42.054200 0 CFG=2
M  V30 3 O 75.672200 56.457200 43.101500 0
M  V30 4 C 75.660900 56.321200 40.756100 0 CFG=2
M  V30 5 O 76.472300 57.440300 40.924700 0
M  V30 6 C 74.351300 56.782800 40.195700 0 CFG=2
M  V30 7 C 73.398200 57.614800 41.030500 0
M  V30 8 C 73.272200 56.111900 40.967200 0 CFG=2
M  V30 9 H 73.419700 55.480600 42.986000 0
M  V30 10 H 76.036100 54.732300 42.124700 0
M  V30 11 H 76.177400 55.618900 40.124700 0
M  V30 12 H 74.266300 56.851400 39.112500 0
M  V30 13 H 73.775200 58.058500 41.949800 0
M  V30 14 H 72.636400 58.198700 40.521400 0
M  V30 15 H 72.410700 55.765700 40.415100 0
M  V30 16 H 76.125600 57.180300 42.677900 0
M  V30 17 H 76.835400 57.676400 40.082900 0
M  V30 18 R 73.529500 53.669400 41.830400 0
M  V30 END ATOM
M  V30 BEGIN BOND
M  V30 1 1 2 1
M  V30 2 1 3 2
M  V30 3 1 4 2
M  V30 4 1 5 4
M  V30 5 1 6 4
M  V30 6 1 7 6
M  V30 7 1 8 1
M  V30 8 1 8 6
M  V30 9 1 8 7
M  V30 10 1 1 9 CFG=1
M  V30 11 1 2 10 CFG=1
M  V30 12 1 4 11 CFG=3
M  V30 13 1 6 12 CFG=3
M  V30 14 1 13 7
M  V30 15 1 14 7
M  V30 16 1 8 15 CFG=3
M  V30 17 1 16 3
M  V30 18 1 17 5
M  V30 19 1 18 1
M  V30 END BOND
M  V30 END CTAB
M  END
$$$$
R-group 268 (5662-2)
     RDKit          3D

  0  0  0  0  0  0  0  0  0  0999 V3000
M  V30 BEGIN CTAB
M  V30 COUNTS 17 16 0 0 1
M  V30 BEGIN ATOM
M  V30 1 C 73.953800 55.366600 41.997200 0 CFG=1
M  V30 2 C 75.415000 55.667900 42.371300 0
M  V30 3 C 73.423400 56.408500 40.938500 0
M  V30 4 C 74.322800 56.648000 39.705600 0
M  V30 5 C 73.144200 57.770700 41.607100 0
M  V30 6 H 73.402000 55.586000 42.912900 0
M  V30 7 H 76.076400 55.268400 41.612100 0
M  V30 8 H 75.615200 56.734500 42.463600 0
M  V30 9 H 75.676600 55.229500 43.332400 0
M  V30 10 H 72.472300 56.074400 40.523900 0
M  V30 11 H 75.352700 56.872000 39.972400 0
M  V30 12 H 73.955800 57.495100 39.125600 0
M  V30 13 H 74.320800 55.806200 39.020100 0
M  V30 14 H 74.064100 58.248900 41.945100 0
M  V30 15 H 72.662500 58.457800 40.911000 0
M  V30 16 H 72.483800 57.673200 42.468100 0
M  V30 17 R 73.656000 53.830800 41.763100 0
M  V30 END ATOM
M  V30 BEGIN BOND
M  V30 1 1 2 1
M  V30 2 1 3 1
M  V30 3 1 4 3
M  V30 4 1 5 3
M  V30 5 1 1 6 CFG=1
M  V30 6 1 7 2
M  V30 7 1 8 2
M  V30 8 1 9 2
M  V30 9 1 10 3
M  V30 10 1 11 4
M  V30 11 1 12 4
M  V30 12 1 13 4
M  V30 13 1 14 5
M  V30 14 1 15 5
M  V30 15 1 16 5
M  V30 16 1 17 1
M  V30 END BOND
M  V30 END CTAB
M  END
$$$$
R-group 269 (8924-3)
     RDKit          3D

  0  0  0  0  0  0  0  0  0  0999 V3000
M  V30 BEGIN CTAB
M  V30 COUNTS 23 24 0 0 1
M  V30 BEGIN ATOM
M  V30 1 C 73.960900 54.981900 41.645100 0
M  V30 2 C 74.536500 55.708500 40.658500 0
M  V30 3 C 74.924300 57.160000 40.862400 0 CFG=2
M  V30 4 C 76.114700 57.182400 41.840000 0
M  V30 5 C 75.465200 57.159300 43.237400 0
M  V30 6 C 73.939400 57.126600 42.993800 0 CFG=2
M  V30 7 C 73.542400 55.661200 42.925400 0
M  V30 8 C 73.821100 57.856300 41.663500 0 CFG=2
M  V30 9 C 72.491200 58.100500 40.959900 0
M  V30 10 H 74.822400 55.313500 39.707700 0
M  V30 11 H 75.135600 57.639600 39.904100 0
M  V30 12 H 76.769500 56.325000 41.697200 0
M  V30 13 H 76.744300 58.058400 41.715500 0
M  V30 14 H 75.673000 58.040400 43.809700 0
M  V30 15 H 75.857700 56.330600 43.828000 0
M  V30 16 H 73.371500 57.637900 43.768500 0
M  V30 17 H 72.472600 55.547300 43.076900 0
M  V30 18 H 74.072200 55.164500 43.737700 0
M  V30 19 H 74.071100 58.858000 41.929200 0
M  V30 20 H 72.073800 57.197800 40.523700 0
M  V30 21 H 71.781400 58.553900 41.650500 0
M  V30 22 H 72.657300 58.843400 40.169200 0
M  V30 23 R 73.623500 53.497000 41.611600 0
M  V30 END ATOM
M  V30 BEGIN BOND
M  V30 1 2 2 1
M  V30 2 1 3 2
M  V30 3 1 4 3
M  V30 4 1 5 4
M  V30 5 1 6 5
M  V30 6 1 7 1
M  V30 7 1 7 6
M  V30 8 1 8 3
M  V30 9 1 8 6
M  V30 10 1 9 8
M  V30 11 1 10 2
M  V30 12 1 3 11 CFG=3
M  V30 13 1 12 4
M  V30 14 1 13 4
M  V30 15 1 14 5
M  V30 16 1 15 5
M  V30 17 1 6 16 CFG=1
M  V30 18 1 17 7
M  V30 19 1 18 7
M  V30 20 1 8 19 CFG=1
M  V30 21 1 20 9
M  V30 22 1 21 9
M  V30 23 1 22 9
M  V30 24 1 23 1
M  V30 END BOND
M  V30 END CTAB
M  END
$$$$
R-group 270 (20061-4)
     RDKit          3D

  0  0  0  0  0  0  0  0  0  0999 V3000
M  V30 BEGIN CTAB
M  V30 COUNTS 15 15 0 0 1
M  V30 BEGIN ATOM
M  V30 1 C 73.687800 55.030300 41.769400 0 CFG=1
M  V30 2 C 73.502700 55.934700 42.991000 0
M  V30 3 C 74.058800 57.301100 42.557900 0
M  V30 4 C 74.718400 57.053100 41.194200 0 CFG=2
M  V30 5 F 73.825100 57.257800 40.221500 0
M  V30 6 C 74.992300 55.563300 41.165800 0
M  V30 7 H 72.875400 55.307500 41.096700 0
M  V30 8 H 72.468100 55.993700 43.324300 0
M  V30 9 H 74.083900 55.557900 43.828700 0
M  V30 10 H 74.793000 57.650300 43.283800 0
M  V30 11 H 73.277200 58.059200 42.485300 0
M  V30 12 H 75.604700 57.657400 41.003600 0
M  V30 13 H 75.851000 55.307900 41.787000 0
M  V30 14 H 75.206000 55.252200 40.149600 0
M  V30 15 R 73.534000 53.507100 41.960500 0
M  V30 END ATOM
M  V30 BEGIN BOND
M  V30 1 1 2 1
M  V30 2 1 3 2
M  V30 3 1 4 3
M  V30 4 1 5 4
M  V30 5 1 6 1
M  V30 6 1 6 4
M  V30 7 1 1 7 CFG=3
M  V30 8 1 8 2
M  V30 9 1 9 2
M  V30 10 1 10 3
M  V30 11 1 11 3
M  V30 12 1 4 12 CFG=3
M  V30 13 1 13 6
M  V30 14 1 14 6
M  V30 15 1 15 1
M  V30 END BOND
M  V30 END CTAB
M  END
$$$$
R-group 271 (10909-1)
     RDKit          3D

  0  0  0  0  0  0  0  0  0  0999 V3000
M  V30 BEGIN CTAB
M  V30 COUNTS 19 19 0 0 1
M  V30 BEGIN ATOM
M  V30 1 C 73.590800 54.971700 41.384100 0 CFG=2
M  V30 2 C 74.659200 55.482300 40.386600 0
M  V30 3 C 75.166900 56.916800 40.623100 0
M  V30 4 C 76.222400 56.955100 41.726800 0
M  V30 5 O 75.688400 56.876100 43.031200 0
M  V30 6 C 75.048200 55.667400 43.326800 0
M  V30 7 C 73.644200 55.710800 42.711100 0
M  V30 8 H 72.644200 55.259000 40.926400 0
M  V30 9 H 75.517600 54.813200 40.389900 0
M  V30 10 H 74.234500 55.449000 39.382900 0
M  V30 11 H 75.666600 57.259200 39.724900 0
M  V30 12 H 74.359700 57.630600 40.806200 0
M  V30 13 H 76.872300 56.106800 41.580900 0
M  V30 14 H 76.827800 57.858000 41.644700 0
M  V30 15 H 75.671300 54.873800 42.931800 0
M  V30 16 H 75.028600 55.478300 44.394500 0
M  V30 17 H 73.307700 56.743600 42.609600 0
M  V30 18 H 72.882800 55.257600 43.324800 0
M  V30 19 R 73.461300 53.422900 41.596900 0
M  V30 END ATOM
M  V30 BEGIN BOND
M  V30 1 1 2 1
M  V30 2 1 3 2
M  V30 3 1 4 3
M  V30 4 1 5 4
M  V30 5 1 6 5
M  V30 6 1 7 1
M  V30 7 1 7 6
M  V30 8 1 1 8 CFG=3
M  V30 9 1 9 2
M  V30 10 1 10 2
M  V30 11 1 11 3
M  V30 12 1 12 3
M  V30 13 1 13 4
M  V30 14 1 14 4
M  V30 15 1 15 6
M  V30 16 1 16 6
M  V30 17 1 17 7
M  V30 18 1 18 7
M  V30 19 1 19 1
M  V30 END BOND
M  V30 END CTAB
M  END
$$$$
R-group 272 (31004-1)
     RDKit          3D

  0  0  0  0  0  0  0  0  0  0999 V3000
M  V30 BEGIN CTAB
M  V30 COUNTS 18 18 0 0 1
M  V30 BEGIN ATOM
M  V30 1 C 73.671000 55.078600 41.737000 0 CFG=2
M  V30 2 C 75.018100 55.578200 41.202600 0
M  V30 3 C 75.233500 56.966100 41.798600 0
M  V30 4 C 74.034300 57.268400 42.717100 0 CFG=1
M  V30 5 C 72.966300 58.196300 42.105000 0
M  V30 6 C 73.480200 55.873000 43.025400 0
M  V30 7 H 72.883500 55.450300 41.071800 0
M  V30 8 H 75.833900 54.930200 41.510700 0
M  V30 9 H 75.025300 55.641300 40.116200 0
M  V30 10 H 76.161400 56.984000 42.372100 0
M  V30 11 H 75.347900 57.658000 40.982500 0
M  V30 12 H 74.385700 57.742800 43.631900 0
M  V30 13 H 72.566900 57.805000 41.170700 0
M  V30 14 H 72.139000 58.362200 42.792800 0
M  V30 15 H 73.353900 59.187300 41.913200 0
M  V30 16 H 72.438600 55.898200 43.343900 0
M  V30 17 H 74.072600 55.433400 43.823700 0
M  V30 18 R 73.491400 53.535000 41.820300 0
M  V30 END ATOM
M  V30 BEGIN BOND
M  V30 1 1 2 1
M  V30 2 1 3 2
M  V30 3 1 4 3
M  V30 4 1 5 4
M  V30 5 1 6 1
M  V30 6 1 6 4
M  V30 7 1 1 7 CFG=3
M  V30 8 1 8 2
M  V30 9 1 9 2
M  V30 10 1 10 3
M  V30 11 1 11 3
M  V30 12 1 4 12 CFG=1
M  V30 13 1 13 5
M  V30 14 1 14 5
M  V30 15 1 15 5
M  V30 16 1 16 6
M  V30 17 1 17 6
M  V30 18 1 18 1
M  V30 END BOND
M  V30 END CTAB
M  END
$$$$
R-group 273 (32793-2)
     RDKit          3D

  0  0  0  0  0  0  0  0  0  0999 V3000
M  V30 BEGIN CTAB
M  V30 COUNTS 16 16 0 0 1
M  V30 BEGIN ATOM
M  V30 1 C 73.397500 55.051900 41.588400 0 CFG=1
M  V30 2 C 73.319400 55.797900 42.917100 0
M  V30 3 O 73.571800 57.161600 42.629700 0
M  V30 4 C 74.242800 57.270200 41.384800 0
M  V30 5 C 74.407000 55.872300 40.790100 0 CFG=1
M  V30 6 C 75.859600 55.449300 40.923500 0
M  V30 7 F 74.061300 55.909600 39.500800 0
M  V30 8 H 72.478300 55.253100 41.038200 0
M  V30 9 H 72.319700 55.706300 43.330700 0
M  V30 10 H 74.073300 55.451900 43.625800 0
M  V30 11 H 75.223000 57.704000 41.551000 0
M  V30 12 H 73.671600 57.930100 40.730300 0
M  V30 13 H 76.077700 55.297200 41.978000 0
M  V30 14 H 76.063200 54.535000 40.382300 0
M  V30 15 H 76.537600 56.204900 40.525500 0
M  V30 16 R 73.420200 53.492000 41.685600 0
M  V30 END ATOM
M  V30 BEGIN BOND
M  V30 1 1 2 1
M  V30 2 1 3 2
M  V30 3 1 4 3
M  V30 4 1 5 1
M  V30 5 1 5 4
M  V30 6 1 6 5
M  V30 7 1 5 7 CFG=3
M  V30 8 1 1 8 CFG=3
M  V30 9 1 9 2
M  V30 10 1 10 2
M  V30 11 1 11 4
M  V30 12 1 12 4
M  V30 13 1 13 6
M  V30 14 1 14 6
M  V30 15 1 15 6
M  V30 16 1 16 1
M  V30 END BOND
M  V30 END CTAB
M  END
$$$$
R-group 274 (35399-3)
     RDKit          3D

  0  0  0  0  0  0  0  0  0  0999 V3000
M  V30 BEGIN CTAB
M  V30 COUNTS 17 17 0 0 1
M  V30 BEGIN ATOM
M  V30 1 C 74.538700 55.003200 41.583700 0 CFG=1
M  V30 2 C 73.799200 55.864600 40.564200 0
M  V30 3 C 73.469200 57.138200 40.782800 0
M  V30 4 C 73.904200 57.866100 42.024400 0 CFG=1
M  V30 5 O 72.872300 58.057300 42.924700 0
M  V30 6 C 75.115000 57.224800 42.705300 0
M  V30 7 C 74.827100 55.745000 42.915100 0
M  V30 8 H 75.510400 54.821400 41.122700 0
M  V30 9 H 73.530000 55.427100 39.616200 0
M  V30 10 H 72.930300 57.701600 40.035500 0
M  V30 11 H 74.072200 58.858000 41.724800 0
M  V30 12 H 76.000300 57.329900 42.076000 0
M  V30 13 H 75.344900 57.710000 43.654900 0
M  V30 14 H 73.977400 55.649000 43.591700 0
M  V30 15 H 75.674400 55.295600 43.428400 0
M  V30 16 H 72.687800 57.226700 43.338800 0
M  V30 17 R 73.833500 53.641400 41.831200 0
M  V30 END ATOM
M  V30 BEGIN BOND
M  V30 1 1 2 1
M  V30 2 2 3 2
M  V30 3 1 4 3
M  V30 4 1 5 4
M  V30 5 1 6 4
M  V30 6 1 7 1
M  V30 7 1 7 6
M  V30 8 1 1 8 CFG=3
M  V30 9 1 9 2
M  V30 10 1 10 3
M  V30 11 1 4 11 CFG=3
M  V30 12 1 12 6
M  V30 13 1 13 6
M  V30 14 1 14 7
M  V30 15 1 15 7
M  V30 16 1 16 5
M  V30 17 1 17 1
M  V30 END BOND
M  V30 END CTAB
M  END
$$$$
R-group 275 (2342-1)
     RDKit          3D

  0  0  0  0  0  0  0  0  0  0999 V3000
M  V30 BEGIN CTAB
M  V30 COUNTS 11 11 0 0 1
M  V30 BEGIN ATOM
M  V30 1 C 72.964100 54.515400 41.935900 0
M  V30 2 N 74.058500 55.442700 41.830500 0
M  V30 3 C 74.487000 56.180700 40.747300 0
M  V30 4 C 75.554700 56.858400 41.247700 0
M  V30 5 N 75.675900 56.555800 42.598000 0
M  V30 6 N 74.809700 55.665700 42.920400 0
M  V30 7 H 72.216400 54.831000 41.211000 0
M  V30 8 H 72.514400 54.577300 42.923900 0
M  V30 9 H 74.023700 56.170700 39.771600 0
M  V30 10 H 76.221000 57.559500 40.767800 0
M  V30 11 R 73.370500 53.083700 41.579100 0
M  V30 END ATOM
M  V30 BEGIN BOND
M  V30 1 1 2 1
M  V30 2 1 3 2
M  V30 3 2 4 3
M  V30 4 1 5 4
M  V30 5 1 6 2
M  V30 6 2 6 5
M  V30 7 1 7 1
M  V30 8 1 8 1
M  V30 9 1 9 3
M  V30 10 1 10 4
M  V30 11 1 11 1
M  V30 END BOND
M  V30 END CTAB
M  END
$$$$
R-group 276 (22341-2)
     RDKit          3D

  0  0  0  0  0  0  0  0  0  0999 V3000
M  V30 BEGIN CTAB
M  V30 COUNTS 18 18 0 0 1
M  V30 BEGIN ATOM
M  V30 1 C 73.593000 54.903000 41.870800 0 CFG=2
M  V30 2 O 73.272800 55.547600 40.645300 0
M  V30 3 C 73.611300 56.917500 40.756200 0 CFG=2
M  V30 4 C 73.651800 57.489000 39.333700 0
M  V30 5 C 74.889200 56.926000 41.624200 0 CFG=2
M  V30 6 O 76.071800 57.254100 40.924800 0
M  V30 7 C 74.988300 55.472900 42.101100 0 CFG=1
M  V30 8 O 75.272300 55.358800 43.466600 0
M  V30 9 H 72.910400 55.273200 42.639800 0
M  V30 10 H 72.820200 57.417000 41.312800 0
M  V30 11 H 73.671800 58.574700 39.325300 0
M  V30 12 H 74.488900 57.104200 38.759500 0
M  V30 13 H 72.745800 57.210800 38.796400 0
M  V30 14 H 74.760300 57.632400 42.451200 0
M  V30 15 H 75.724900 54.923100 41.519300 0
M  V30 16 H 76.815700 57.032600 41.473000 0
M  V30 17 H 74.486200 55.550400 43.961000 0
M  V30 18 R 73.463700 53.358200 41.776500 0
M  V30 END ATOM
M  V30 BEGIN BOND
M  V30 1 1 2 1
M  V30 2 1 3 2
M  V30 3 1 4 3
M  V30 4 1 5 3
M  V30 5 1 6 5
M  V30 6 1 7 1
M  V30 7 1 7 5
M  V30 8 1 8 7
M  V30 9 1 1 9 CFG=1
M  V30 10 1 3 10 CFG=1
M  V30 11 1 11 4
M  V30 12 1 12 4
M  V30 13 1 13 4
M  V30 14 1 5 14 CFG=1
M  V30 15 1 7 15 CFG=3
M  V30 16 1 16 6
M  V30 17 1 17 8
M  V30 18 1 18 1
M  V30 END BOND
M  V30 END CTAB
M  END
$$$$
R-group 277 (5667-1)
     RDKit          3D

  0  0  0  0  0  0  0  0  0  0999 V3000
M  V30 BEGIN CTAB
M  V30 COUNTS 16 16 0 0 1
M  V30 BEGIN ATOM
M  V30 1 C 73.896300 55.253000 41.860000 0 CFG=2
M  V30 2 C 75.284900 55.740100 41.407600 0
M  V30 3 C 75.492800 57.107500 42.064800 0
M  V30 4 C 74.201300 57.403900 42.839800 0 CFG=1
M  V30 5 O 73.272200 58.058000 42.005600 0
M  V30 6 C 73.628200 56.027200 43.151700 0
M  V30 7 H 73.193100 55.665700 41.136600 0
M  V30 8 H 76.072200 55.064100 41.724400 0
M  V30 9 H 75.343000 55.838600 40.324500 0
M  V30 10 H 75.745100 57.866700 41.324600 0
M  V30 11 H 76.330800 57.050600 42.760500 0
M  V30 12 H 74.376100 58.014000 43.724400 0
M  V30 13 H 72.571000 56.058200 43.418900 0
M  V30 14 H 74.170100 55.585300 43.983700 0
M  V30 15 H 73.646200 58.883600 41.732500 0
M  V30 16 R 73.629500 53.725600 41.899100 0
M  V30 END ATOM
M  V30 BEGIN BOND
M  V30 1 1 2 1
M  V30 2 1 3 2
M  V30 3 1 4 3
M  V30 4 1 5 4
M  V30 5 1 6 1
M  V30 6 1 6 4
M  V30 7 1 1 7 CFG=3
M  V30 8 1 8 2
M  V30 9 1 9 2
M  V30 10 1 10 3
M  V30 11 1 11 3
M  V30 12 1 4 12 CFG=1
M  V30 13 1 13 6
M  V30 14 1 14 6
M  V30 15 1 15 5
M  V30 16 1 16 1
M  V30 END BOND
M  V30 END CTAB
M  END
$$$$
R-group 278 (22331-1)
     RDKit          3D

  0  0  0  0  0  0  0  0  0  0999 V3000
M  V30 BEGIN CTAB
M  V30 COUNTS 22 22 0 0 1
M  V30 BEGIN ATOM
M  V30 1 C 73.855800 56.050200 38.955400 0
M  V30 2 C 73.221400 55.919500 40.350600 0
M  V30 3 C 74.044100 55.228600 41.508700 0
M  V30 4 C 73.625000 55.948900 42.816800 0
M  V30 5 C 74.162000 57.384400 42.875400 0
M  V30 6 O 75.567300 57.256800 42.924700 0
M  V30 7 C 76.068800 56.883200 41.657300 0
M  V30 8 C 75.581500 55.461000 41.365100 0
M  V30 9 H 73.271600 56.760200 38.377200 0
M  V30 10 H 74.865500 56.457500 38.979800 0
M  V30 11 H 73.857200 55.116600 38.398600 0
M  V30 12 H 72.237300 55.466700 40.246100 0
M  V30 13 H 72.950100 56.937100 40.610600 0
M  V30 14 H 72.544500 55.933000 42.946800 0
M  V30 15 H 74.033400 55.433500 43.684300 0
M  V30 16 H 73.870400 58.030600 42.051000 0
M  V30 17 H 73.773800 57.914400 43.724900 0
M  V30 18 H 75.772500 57.592000 40.883600 0
M  V30 19 H 77.154400 56.914100 41.723800 0
M  V30 20 H 76.071000 54.876500 42.123600 0
M  V30 21 H 75.985000 55.120000 40.415600 0
M  V30 22 R 73.698800 53.681500 41.683000 0
M  V30 END ATOM
M  V30 BEGIN BOND
M  V30 1 1 2 1
M  V30 2 1 3 2
M  V30 3 1 4 3
M  V30 4 1 5 4
M  V30 5 1 6 5
M  V30 6 1 7 6
M  V30 7 1 8 3
M  V30 8 1 8 7
M  V30 9 1 9 1
M  V30 10 1 10 1
M  V30 11 1 11 1
M  V30 12 1 12 2
M  V30 13 1 13 2
M  V30 14 1 14 4
M  V30 15 1 15 4
M  V30 16 1 16 5
M  V30 17 1 17 5
M  V30 18 1 18 7
M  V30 19 1 19 7
M  V30 20 1 20 8
M  V30 21 1 21 8
M  V30 22 1 22 3
M  V30 END BOND
M  V30 END CTAB
M  END
$$$$
R-group 279 (41138-1)
     RDKit          3D

  0  0  0  0  0  0  0  0  0  0999 V3000
M  V30 BEGIN CTAB
M  V30 COUNTS 22 22 0 0 1
M  V30 BEGIN ATOM
M  V30 1 C 73.515500 54.719900 42.102400 0
M  V30 2 C 74.479700 55.474000 41.137100 0 CFG=1
M  V30 3 C 73.854500 55.719700 39.735700 0
M  V30 4 C 72.638800 56.657700 39.755900 0
M  V30 5 C 72.970000 57.951800 40.518000 0
M  V30 6 C 73.652100 57.713900 41.885400 0
M  V30 7 C 74.901300 56.829200 41.712400 0 CFG=1
M  V30 8 O 75.613100 56.610800 42.924400 0
M  V30 9 H 72.472300 54.969600 41.951700 0
M  V30 10 H 73.716400 55.002100 43.141600 0
M  V30 11 H 75.399600 54.893900 41.028400 0
M  V30 12 H 74.634800 56.166800 39.124100 0
M  V30 13 H 73.581400 54.798500 39.244500 0
M  V30 14 H 71.728200 56.181500 40.124800 0
M  V30 15 H 72.426900 56.941200 38.720000 0
M  V30 16 H 72.100200 58.616900 40.615900 0
M  V30 17 H 73.672400 58.461100 39.841500 0
M  V30 18 H 72.939900 57.260200 42.577700 0
M  V30 19 H 73.930500 58.671600 42.316100 0
M  V30 20 H 75.605500 57.312800 41.042100 0
M  V30 21 H 76.073100 57.398300 43.191800 0
M  V30 22 R 73.512200 53.207800 41.979800 0
M  V30 END ATOM
M  V30 BEGIN BOND
M  V30 1 1 2 1
M  V30 2 1 3 2
M  V30 3 1 4 3
M  V30 4 1 5 4
M  V30 5 1 6 5
M  V30 6 1 7 2
M  V30 7 1 7 6
M  V30 8 1 8 7
M  V30 9 1 9 1
M  V30 10 1 10 1
M  V30 11 1 2 11 CFG=3
M  V30 12 1 12 3
M  V30 13 1 13 3
M  V30 14 1 14 4
M  V30 15 1 15 4
M  V30 16 1 16 5
M  V30 17 1 17 5
M  V30 18 1 18 6
M  V30 19 1 19 6
M  V30 20 1 7 20 CFG=3
M  V30 21 1 21 8
M  V30 22 1 22 1
M  V30 END BOND
M  V30 END CTAB
M  END
$$$$
R-group 280 (10597-1)
     RDKit          3D

  0  0  0  0  0  0  0  0  0  0999 V3000
M  V30 BEGIN CTAB
M  V30 COUNTS 19 20 0 0 1
M  V30 BEGIN ATOM
M  V30 1 C 74.843100 55.047200 42.100800 0 CFG=1
M  V30 2 C 74.784900 56.217900 41.126700 0 CFG=2
M  V30 3 C 75.918800 57.059800 41.729900 0
M  V30 4 C 75.662700 56.954800 43.255900 0
M  V30 5 C 74.544900 55.914000 43.315600 0 CFG=1
M  V30 6 C 73.250900 56.620900 42.924000 0
M  V30 7 C 73.449600 56.907700 41.417900 0
M  V30 8 H 75.877100 54.712000 42.120600 0
M  V30 9 H 74.947100 55.984200 40.075000 0
M  V30 10 H 76.871900 56.612500 41.473200 0
M  V30 11 H 75.936000 58.058500 41.324600 0
M  V30 12 H 75.382600 57.903200 43.719000 0
M  V30 13 H 76.496100 56.562900 43.815500 0
M  V30 14 H 74.489400 55.336300 44.237200 0
M  V30 15 H 72.450500 55.922800 43.122600 0
M  V30 16 H 73.060300 57.522200 43.507900 0
M  V30 17 H 73.496700 57.978500 41.212700 0
M  V30 18 H 72.682600 56.490200 40.771800 0
M  V30 19 R 73.980500 53.762600 41.955600 0
M  V30 END ATOM
M  V30 BEGIN BOND
M  V30 1 1 2 1
M  V30 2 1 3 2
M  V30 3 1 4 3
M  V30 4 1 5 1
M  V30 5 1 5 4
M  V30 6 1 6 5
M  V30 7 1 7 2
M  V30 8 1 7 6
M  V30 9 1 1 8 CFG=1
M  V30 10 1 2 9 CFG=3
M  V30 11 1 10 3
M  V30 12 1 11 3
M  V30 13 1 12 4
M  V30 14 1 13 4
M  V30 15 1 5 14 CFG=1
M  V30 16 1 15 6
M  V30 17 1 16 6
M  V30 18 1 17 7
M  V30 19 1 18 7
M  V30 20 1 19 1
M  V30 END BOND
M  V30 END CTAB
M  END
$$$$
R-group 281 (6291-1)
     RDKit          3D

  0  0  0  0  0  0  0  0  0  0999 V3000
M  V30 BEGIN CTAB
M  V30 COUNTS 12 12 0 0 1
M  V30 BEGIN ATOM
M  V30 1 C 74.136100 55.050500 41.886500 0
M  V30 2 C 73.672300 56.107400 42.612100 0
M  V30 3 O 74.474600 57.188400 42.497700 0
M  V30 4 C 75.494100 56.801200 41.688500 0
M  V30 5 C 76.650000 57.712200 41.586700 0
M  V30 6 C 75.272100 55.556900 41.206000 0
M  V30 7 H 72.854200 56.223000 43.308600 0
M  V30 8 H 77.541100 57.258000 41.194100 0
M  V30 9 H 76.472200 58.550100 40.925200 0
M  V30 10 H 76.874800 58.059600 42.591500 0
M  V30 11 H 75.962700 55.031900 40.567600 0
M  V30 12 R 73.650700 53.628500 41.898800 0
M  V30 END ATOM
M  V30 BEGIN BOND
M  V30 1 2 2 1
M  V30 2 1 3 2
M  V30 3 1 4 3
M  V30 4 1 5 4
M  V30 5 1 6 1
M  V30 6 2 6 4
M  V30 7 1 7 2
M  V30 8 1 8 5
M  V30 9 1 9 5
M  V30 10 1 10 5
M  V30 11 1 11 6
M  V30 12 1 12 1
M  V30 END BOND
M  V30 END CTAB
M  END
$$$$
R-group 282 (32793-3)
     RDKit          3D

  0  0  0  0  0  0  0  0  0  0999 V3000
M  V30 BEGIN CTAB
M  V30 COUNTS 16 16 0 0 1
M  V30 BEGIN ATOM
M  V30 1 C 73.909400 55.000100 41.468600 0 CFG=2
M  V30 2 C 73.626600 55.811700 42.740600 0
M  V30 3 O 73.672300 57.172000 42.342500 0
M  V30 4 C 73.490200 57.276200 40.935500 0
M  V30 5 C 73.286000 55.870700 40.354100 0 CFG=2
M  V30 6 C 71.842700 55.574300 39.863100 0
M  V30 7 F 74.045700 55.810600 39.262000 0
M  V30 8 H 74.985300 55.067400 41.312500 0
M  V30 9 H 72.630200 55.613100 43.128600 0
M  V30 10 H 74.340300 55.617600 43.539300 0
M  V30 11 H 74.436000 57.653000 40.551700 0
M  V30 12 H 72.711800 57.994200 40.681100 0
M  V30 13 H 71.294900 54.893500 40.524800 0
M  V30 14 H 71.253000 56.484400 39.725800 0
M  V30 15 H 71.852000 55.103200 38.881500 0
M  V30 16 R 73.569900 53.482700 41.599000 0
M  V30 END ATOM
M  V30 BEGIN BOND
M  V30 1 1 2 1
M  V30 2 1 3 2
M  V30 3 1 4 3
M  V30 4 1 5 1
M  V30 5 1 5 4
M  V30 6 1 6 5
M  V30 7 1 5 7 CFG=3
M  V30 8 1 1 8 CFG=3
M  V30 9 1 9 2
M  V30 10 1 10 2
M  V30 11 1 11 4
M  V30 12 1 12 4
M  V30 13 1 13 6
M  V30 14 1 14 6
M  V30 15 1 15 6
M  V30 16 1 16 1
M  V30 END BOND
M  V30 END CTAB
M  END
$$$$
R-group 283 (20045-2)
     RDKit          3D

  0  0  0  0  0  0  0  0  0  0999 V3000
M  V30 BEGIN CTAB
M  V30 COUNTS 17 17 0 0 1
M  V30 BEGIN ATOM
M  V30 1 N 73.939900 55.001900 41.744800 0
M  V30 2 C 73.659300 55.812300 42.922300 0
M  V30 3 C 74.191000 57.189900 42.507600 0 CFG=2
M  V30 4 C 73.048700 58.120400 42.075000 0
M  V30 5 C 75.219200 56.866300 41.409800 0
M  V30 6 F 76.409400 57.419400 41.653100 0
M  V30 7 F 74.799200 57.255500 40.200600 0
M  V30 8 C 75.317200 55.362200 41.417400 0
M  V30 9 H 72.603300 55.821500 43.187700 0
M  V30 10 H 74.219400 55.443600 43.777900 0
M  V30 11 H 74.699400 57.654100 43.350300 0
M  V30 12 H 72.472200 57.674000 41.265200 0
M  V30 13 H 72.382900 58.329500 42.913100 0
M  V30 14 H 73.409300 59.077300 41.724900 0
M  V30 15 H 76.003000 55.050500 42.201500 0
M  V30 16 H 75.690800 54.984400 40.473200 0
M  V30 17 R 73.627600 53.578800 41.874300 0
M  V30 END ATOM
M  V30 BEGIN BOND
M  V30 1 1 2 1
M  V30 2 1 3 2
M  V30 3 1 4 3
M  V30 4 1 5 3
M  V30 5 1 6 5
M  V30 6 1 7 5
M  V30 7 1 8 1
M  V30 8 1 8 5
M  V30 9 1 9 2
M  V30 10 1 10 2
M  V30 11 1 3 11 CFG=1
M  V30 12 1 12 4
M  V30 13 1 13 4
M  V30 14 1 14 4
M  V30 15 1 15 8
M  V30 16 1 16 8
M  V30 17 1 17 1
M  V30 END BOND
M  V30 END CTAB
M  END
$$$$
R-group 284 (18506-4)
     RDKit          3D

  0  0  0  0  0  0  0  0  0  0999 V3000
M  V30 BEGIN CTAB
M  V30 COUNTS 16 16 0 0 1
M  V30 BEGIN ATOM
M  V30 1 C 74.127100 55.114300 41.733000 0 CFG=2
M  V30 2 C 73.486500 55.977000 42.822700 0
M  V30 3 C 73.491200 57.418800 42.314600 0
M  V30 4 C 74.136000 57.374400 40.929400 0
M  V30 5 C 74.022400 55.945100 40.430900 0 CFG=2
M  V30 6 O 72.803300 55.863400 39.724700 0
M  V30 7 H 75.199000 55.138300 41.943200 0
M  V30 8 H 72.472300 55.659500 43.062600 0
M  V30 9 H 74.075400 55.878100 43.724700 0
M  V30 10 H 74.049200 58.066500 42.989500 0
M  V30 11 H 72.474900 57.808300 42.249800 0
M  V30 12 H 75.191100 57.636300 41.022800 0
M  V30 13 H 73.672200 58.065200 40.229800 0
M  V30 14 H 74.835200 55.740300 39.736400 0
M  V30 15 H 72.110500 56.143500 40.301700 0
M  V30 16 R 73.697400 53.615600 41.802400 0
M  V30 END ATOM
M  V30 BEGIN BOND
M  V30 1 1 2 1
M  V30 2 1 3 2
M  V30 3 1 4 3
M  V30 4 1 5 1
M  V30 5 1 5 4
M  V30 6 1 6 5
M  V30 7 1 1 7 CFG=1
M  V30 8 1 8 2
M  V30 9 1 9 2
M  V30 10 1 10 3
M  V30 11 1 11 3
M  V30 12 1 12 4
M  V30 13 1 13 4
M  V30 14 1 5 14 CFG=3
M  V30 15 1 15 6
M  V30 16 1 16 1
M  V30 END BOND
M  V30 END CTAB
M  END
$$$$
R-group 285 (10092-7)
     RDKit          3D

  0  0  0  0  0  0  0  0  0  0999 V3000
M  V30 BEGIN CTAB
M  V30 COUNTS 17 17 0 0 1
M  V30 BEGIN ATOM
M  V30 1 C 73.519000 54.837000 41.872100 0 CFG=1
M  V30 2 C 74.794600 55.534600 42.349600 0
M  V30 3 C 74.610200 56.924900 41.770900 0 CFG=2
M  V30 4 O 73.672000 57.654000 42.541500 0
M  V30 5 C 74.034200 56.598800 40.391000 0 CFG=2
M  V30 6 C 73.134400 57.638000 39.725500 0
M  V30 7 O 73.273000 55.420700 40.590800 0
M  V30 8 H 72.718200 55.146900 42.543800 0
M  V30 9 H 74.915800 55.527900 43.434100 0
M  V30 10 H 75.672200 55.069900 41.902400 0
M  V30 11 H 75.546600 57.479700 41.708300 0
M  V30 12 H 74.852500 56.340900 39.716700 0
M  V30 13 H 73.672000 58.503200 39.351000 0
M  V30 14 H 72.647100 57.190800 38.859400 0
M  V30 15 H 72.351100 57.980300 40.401100 0
M  V30 16 H 72.862500 57.166200 42.558800 0
M  V30 17 R 73.476400 53.289500 41.778500 0
M  V30 END ATOM
M  V30 BEGIN BOND
M  V30 1 1 2 1
M  V30 2 1 3 2
M  V30 3 1 4 3
M  V30 4 1 5 3
M  V30 5 1 6 5
M  V30 6 1 7 1
M  V30 7 1 7 5
M  V30 8 1 1 8 CFG=1
M  V30 9 1 9 2
M  V30 10 1 10 2
M  V30 11 1 3 11 CFG=3
M  V30 12 1 5 12 CFG=3
M  V30 13 1 13 6
M  V30 14 1 14 6
M  V30 15 1 15 6
M  V30 16 1 16 4
M  V30 17 1 17 1
M  V30 END BOND
M  V30 END CTAB
M  END
$$$$
R-group 286 (5667-2)
     RDKit          3D

  0  0  0  0  0  0  0  0  0  0999 V3000
M  V30 BEGIN CTAB
M  V30 COUNTS 16 16 0 0 1
M  V30 BEGIN ATOM
M  V30 1 C 73.538000 54.938500 41.635400 0 CFG=1
M  V30 2 C 73.339200 55.739300 42.927900 0
M  V30 3 C 73.720000 57.150400 42.497400 0
M  V30 4 C 74.957800 56.901600 41.632800 0 CFG=1
M  V30 5 O 76.072400 56.858000 42.480300 0
M  V30 6 C 74.793100 55.530200 40.992500 0
M  V30 7 H 72.721600 55.239800 40.982400 0
M  V30 8 H 72.327000 55.666400 43.325000 0
M  V30 9 H 74.041300 55.414700 43.699400 0
M  V30 10 H 73.907000 57.819200 43.335500 0
M  V30 11 H 72.919900 57.584800 41.895200 0
M  V30 12 H 75.116200 57.658000 40.873900 0
M  V30 13 H 75.671200 54.904200 41.136800 0
M  V30 14 H 74.649200 55.653900 39.920800 0
M  V30 15 H 76.839200 56.660800 41.964400 0
M  V30 16 R 73.460900 53.400100 41.748700 0
M  V30 END ATOM
M  V30 BEGIN BOND
M  V30 1 1 2 1
M  V30 2 1 3 2
M  V30 3 1 4 3
M  V30 4 1 5 4
M  V30 5 1 6 1
M  V30 6 1 6 4
M  V30 7 1 1 7 CFG=3
M  V30 8 1 8 2
M  V30 9 1 9 2
M  V30 10 1 10 3
M  V30 11 1 11 3
M  V30 12 1 4 12 CFG=3
M  V30 13 1 13 6
M  V30 14 1 14 6
M  V30 15 1 15 5
M  V30 16 1 16 1
M  V30 END BOND
M  V30 END CTAB
M  END
$$$$
R-group 287 (28049-1)
     RDKit          3D

  0  0  0  0  0  0  0  0  0  0999 V3000
M  V30 BEGIN CTAB
M  V30 COUNTS 20 19 0 0 1
M  V30 BEGIN ATOM
M  V30 1 C 73.225700 57.554400 43.291900 0
M  V30 2 C 73.452800 56.038000 43.154900 0
M  V30 3 C 74.109500 55.482200 41.852200 0
M  V30 4 C 73.542200 56.236200 40.618100 0
M  V30 5 C 75.650200 55.727100 41.885100 0
M  V30 6 C 76.209200 57.156700 41.943700 0
M  V30 7 H 72.687900 57.764700 44.214200 0
M  V30 8 H 72.612100 57.961100 42.488800 0
M  V30 9 H 74.149500 58.115700 43.324500 0
M  V30 10 H 74.024000 55.658200 44.003300 0
M  V30 11 H 72.456700 55.621500 43.278200 0
M  V30 12 H 74.015500 55.913500 39.691400 0
M  V30 13 H 72.472300 56.091300 40.509500 0
M  V30 14 H 73.699300 57.311700 40.663000 0
M  V30 15 H 76.072200 55.258000 42.763300 0
M  V30 16 H 76.074100 55.253600 41.006100 0
M  V30 17 H 77.271600 57.159000 41.717300 0
M  V30 18 H 75.741100 57.823300 41.229800 0
M  V30 19 H 76.134800 57.579400 42.944000 0
M  V30 20 R 73.776300 53.910300 41.774600 0
M  V30 END ATOM
M  V30 BEGIN BOND
M  V30 1 1 2 1
M  V30 2 1 3 2
M  V30 3 1 4 3
M  V30 4 1 5 3
M  V30 5 1 6 5
M  V30 6 1 7 1
M  V30 7 1 8 1
M  V30 8 1 9 1
M  V30 9 1 10 2
M  V30 10 1 11 2
M  V30 11 1 12 4
M  V30 12 1 13 4
M  V30 13 1 14 4
M  V30 14 1 15 5
M  V30 15 1 16 5
M  V30 16 1 17 6
M  V30 17 1 18 6
M  V30 18 1 19 6
M  V30 19 1 20 3
M  V30 END BOND
M  V30 END CTAB
M  END
$$$$
R-group 288 (44127-5)
     RDKit          3D

  0  0  0  0  0  0  0  0  0  0999 V3000
M  V30 BEGIN CTAB
M  V30 COUNTS 16 16 0 0 1
M  V30 BEGIN ATOM
M  V30 1 C 74.269600 54.918600 41.471500 0 CFG=1
M  V30 2 C 73.557500 55.864400 40.476500 0 CFG=2
M  V30 3 F 73.833900 55.630300 39.197200 0
M  V30 4 C 74.063400 57.258100 40.841700 0
M  V30 5 C 74.435800 57.217700 42.329100 0
M  V30 6 C 74.295600 55.747300 42.746800 0 CFG=2
M  V30 7 C 75.272000 55.258000 43.725300 0
M  V30 8 N 76.016900 54.861800 44.524700 0
M  V30 9 H 75.303000 54.828600 41.128600 0
M  V30 10 H 72.473200 55.804200 40.525400 0
M  V30 11 H 73.329600 58.033700 40.610400 0
M  V30 12 H 74.970100 57.455100 40.265200 0
M  V30 13 H 75.446600 57.603700 42.475100 0
M  V30 14 H 73.768500 57.846000 42.921500 0
M  V30 15 H 73.321900 55.648300 43.229800 0
M  V30 16 R 73.674500 53.488600 41.682600 0
M  V30 END ATOM
M  V30 BEGIN BOND
M  V30 1 1 2 1
M  V30 2 1 3 2
M  V30 3 1 4 2
M  V30 4 1 5 4
M  V30 5 1 6 1
M  V30 6 1 6 5
M  V30 7 1 7 6
M  V30 8 3 8 7
M  V30 9 1 1 9 CFG=3
M  V30 10 1 2 10 CFG=3
M  V30 11 1 11 4
M  V30 12 1 12 4
M  V30 13 1 13 5
M  V30 14 1 14 5
M  V30 15 1 6 15 CFG=1
M  V30 16 1 16 1
M  V30 END BOND
M  V30 END CTAB
M  END
$$$$
R-group 289 (7591-4)
     RDKit          3D

  0  0  0  0  0  0  0  0  0  0999 V3000
M  V30 BEGIN CTAB
M  V30 COUNTS 15 15 0 0 1
M  V30 BEGIN ATOM
M  V30 1 O 73.360000 54.613500 42.106000 0
M  V30 2 C 74.338800 55.354400 41.396400 0 CFG=1
M  V30 3 C 73.736200 56.072300 40.181400 0
M  V30 4 O 73.272500 57.331200 40.643000 0
M  V30 5 C 73.715100 57.555700 41.973100 0
M  V30 6 C 74.760500 56.484000 42.278800 0 CFG=2
M  V30 7 O 76.071800 56.857800 41.923100 0
M  V30 8 H 75.216200 54.756400 41.160600 0
M  V30 9 H 74.511100 56.254600 39.434000 0
M  V30 10 H 72.934000 55.527600 39.698900 0
M  V30 11 H 72.861200 57.412500 42.632600 0
M  V30 12 H 74.069500 58.568800 42.122000 0
M  V30 13 H 74.764500 56.201300 43.327600 0
M  V30 14 H 76.649700 56.128300 42.097500 0
M  V30 15 R 73.357500 53.213300 41.897200 0
M  V30 END ATOM
M  V30 BEGIN BOND
M  V30 1 1 2 1
M  V30 2 1 3 2
M  V30 3 1 4 3
M  V30 4 1 5 4
M  V30 5 1 6 2
M  V30 6 1 6 5
M  V30 7 1 7 6
M  V30 8 1 2 8 CFG=3
M  V30 9 1 9 3
M  V30 10 1 10 3
M  V30 11 1 11 5
M  V30 12 1 12 5
M  V30 13 1 6 13 CFG=1
M  V30 14 1 14 7
M  V30 15 1 15 1
M  V30 END BOND
M  V30 END CTAB
M  END
$$$$
R-group 290 (795-1)
     RDKit          3D

  0  0  0  0  0  0  0  0  0  0999 V3000
M  V30 BEGIN CTAB
M  V30 COUNTS 12 12 0 0 1
M  V30 BEGIN ATOM
M  V30 1 C 74.026000 55.306100 41.676300 0
M  V30 2 F 73.276700 55.876800 40.729600 0
M  V30 3 C 75.449400 55.786600 41.399700 0
M  V30 4 C 75.566200 56.264300 42.848700 0
M  V30 5 C 74.040300 56.192200 42.926000 0
M  V30 6 H 76.072200 54.960200 41.108100 0
M  V30 7 H 75.503200 56.603200 40.679700 0
M  V30 8 H 76.063700 55.555900 43.510600 0
M  V30 9 H 75.972800 57.268000 42.962600 0
M  V30 10 H 73.555900 57.159600 42.779100 0
M  V30 11 H 73.672100 55.676900 43.808600 0
M  V30 12 R 73.677100 53.795100 41.812700 0
M  V30 END ATOM
M  V30 BEGIN BOND
M  V30 1 1 2 1
M  V30 2 1 3 1
M  V30 3 1 4 3
M  V30 4 1 5 1
M  V30 5 1 5 4
M  V30 6 1 6 3
M  V30 7 1 7 3
M  V30 8 1 8 4
M  V30 9 1 9 4
M  V30 10 1 10 5
M  V30 11 1 11 5
M  V30 12 1 12 1
M  V30 END BOND
M  V30 END CTAB
M  END
$$$$
R-group 291 (801-1)
     RDKit          3D

  0  0  0  0  0  0  0  0  0  0999 V3000
M  V30 BEGIN CTAB
M  V30 COUNTS 11 11 0 0 1
M  V30 BEGIN ATOM
M  V30 1 C 74.071700 54.831700 41.871600 0
M  V30 2 N 73.673100 55.613300 40.883600 0
M  V30 3 C 73.884100 56.874300 41.355200 0
M  V30 4 C 73.232300 58.012800 40.675900 0
M  V30 5 C 74.595800 56.802700 42.523300 0
M  V30 6 O 74.694600 55.490500 42.886300 0
M  V30 7 H 73.272500 58.858700 41.340200 0
M  V30 8 H 73.671800 58.233100 39.703700 0
M  V30 9 H 72.175600 57.806700 40.516800 0
M  V30 10 H 74.956400 57.530900 43.235100 0
M  V30 11 R 73.688100 53.405900 42.007000 0
M  V30 END ATOM
M  V30 BEGIN BOND
M  V30 1 2 2 1
M  V30 2 1 3 2
M  V30 3 1 4 3
M  V30 4 2 5 3
M  V30 5 1 6 1
M  V30 6 1 6 5
M  V30 7 1 7 4
M  V30 8 1 8 4
M  V30 9 1 9 4
M  V30 10 1 10 5
M  V30 11 1 11 1
M  V30 END BOND
M  V30 END CTAB
M  END
$$$$
R-group 292 (11627-1)
     RDKit          3D

  0  0  0  0  0  0  0  0  0  0999 V3000
M  V30 BEGIN CTAB
M  V30 COUNTS 20 20 0 0 1
M  V30 BEGIN ATOM
M  V30 1 O 73.672000 54.867800 41.782500 0
M  V30 2 C 73.350900 55.610100 42.936800 0
M  V30 3 C 73.823600 57.063400 42.876300 0 CFG=1
M  V30 4 C 75.352300 57.097200 43.069200 0
M  V30 5 C 76.072000 56.858000 41.766200 0
M  V30 6 C 75.471600 56.858000 40.571000 0
M  V30 7 C 74.026000 57.251500 40.320700 0
M  V30 8 C 73.382800 57.817400 41.602900 0
M  V30 9 H 72.298200 55.544300 43.210300 0
M  V30 10 H 73.928400 55.155600 43.724700 0
M  V30 11 H 73.371700 57.575500 43.724900 0
M  V30 12 H 75.672000 58.010500 43.551500 0
M  V30 13 H 75.685900 56.320400 43.754900 0
M  V30 14 H 77.119000 56.624500 41.834400 0
M  V30 15 H 76.071700 56.607800 39.724700 0
M  V30 16 H 73.963900 57.968700 39.499500 0
M  V30 17 H 73.482700 56.379500 39.960200 0
M  V30 18 H 72.305300 57.845500 41.497000 0
M  V30 19 H 73.671100 58.857800 41.724500 0
M  V30 20 R 73.388300 53.487000 41.846200 0
M  V30 END ATOM
M  V30 BEGIN BOND
M  V30 1 1 2 1
M  V30 2 1 3 2
M  V30 3 1 4 3
M  V30 4 1 5 4
M  V30 5 2 6 5
M  V30 6 1 7 6
M  V30 7 1 8 3
M  V30 8 1 8 7
M  V30 9 1 9 2
M  V30 10 1 10 2
M  V30 11 1 3 11 CFG=1
M  V30 12 1 12 4
M  V30 13 1 13 4
M  V30 14 1 14 5
M  V30 15 1 15 6
M  V30 16 1 16 7
M  V30 17 1 17 7
M  V30 18 1 18 8
M  V30 19 1 19 8
M  V30 20 1 20 1
M  V30 END BOND
M  V30 END CTAB
M  END
$$$$
R-group 293 (25435-2)
     RDKit          3D

  0  0  0  0  0  0  0  0  0  0999 V3000
M  V30 BEGIN CTAB
M  V30 COUNTS 19 19 0 0 1
M  V30 BEGIN ATOM
M  V30 1 C 73.552500 54.847800 41.665200 0 CFG=1
M  V30 2 C 73.506700 55.729800 42.922200 0
M  V30 3 C 74.229100 57.036000 42.544900 0
M  V30 4 C 74.721800 56.858100 41.095200 0 CFG=1
M  V30 5 C 73.758800 57.528700 40.072800 0
M  V30 6 O 76.073000 57.258000 40.930200 0
M  V30 7 C 74.756000 55.357900 40.886500 0
M  V30 8 H 72.681400 55.103800 41.069100 0
M  V30 9 H 72.476200 55.887100 43.282300 0
M  V30 10 H 74.073800 55.277200 43.734100 0
M  V30 11 H 73.572600 57.903000 42.658400 0
M  V30 12 H 75.072400 57.191900 43.222600 0
M  V30 13 H 72.901600 56.899500 39.836700 0
M  V30 14 H 73.320900 58.457200 40.442400 0
M  V30 15 H 74.257500 57.740800 39.125600 0
M  V30 16 H 75.670200 54.917600 41.286900 0
M  V30 17 H 74.716200 55.165200 39.821000 0
M  V30 18 H 76.135800 58.194900 41.035900 0
M  V30 19 R 73.478000 53.323500 41.872900 0
M  V30 END ATOM
M  V30 BEGIN BOND
M  V30 1 1 2 1
M  V30 2 1 3 2
M  V30 3 1 4 3
M  V30 4 1 5 4
M  V30 5 1 4 6 CFG=1
M  V30 6 1 7 1
M  V30 7 1 7 4
M  V30 8 1 1 8 CFG=3
M  V30 9 1 9 2
M  V30 10 1 10 2
M  V30 11 1 11 3
M  V30 12 1 12 3
M  V30 13 1 13 5
M  V30 14 1 14 5
M  V30 15 1 15 5
M  V30 16 1 16 7
M  V30 17 1 17 7
M  V30 18 1 18 6
M  V30 19 1 19 1
M  V30 END BOND
M  V30 END CTAB
M  END
$$$$
R-group 294 (21423-1)
     RDKit          3D

  0  0  0  0  0  0  0  0  0  0999 V3000
M  V30 BEGIN CTAB
M  V30 COUNTS 13 13 0 0 1
M  V30 BEGIN ATOM
M  V30 1 C 74.060600 55.342400 41.767600 0
M  V30 2 C 73.518000 56.019200 43.020200 0
M  V30 3 O 73.612400 57.424900 42.924700 0
M  V30 4 C 75.405900 55.809700 41.227000 0
M  V30 5 C 74.155400 56.156800 40.468600 0
M  V30 6 H 72.472800 55.754600 43.182700 0
M  V30 7 H 74.073500 55.658000 43.884100 0
M  V30 8 H 75.915300 56.617300 41.748600 0
M  V30 9 H 76.072100 55.086400 40.771700 0
M  V30 10 H 74.018200 55.682100 39.503000 0
M  V30 11 H 73.853600 57.201900 40.471000 0
M  V30 12 H 74.522300 57.657300 42.821200 0
M  V30 13 R 73.699200 53.833300 41.775700 0
M  V30 END ATOM
M  V30 BEGIN BOND
M  V30 1 1 2 1
M  V30 2 1 3 2
M  V30 3 1 4 1
M  V30 4 1 5 1
M  V30 5 1 5 4
M  V30 6 1 6 2
M  V30 7 1 7 2
M  V30 8 1 8 4
M  V30 9 1 9 4
M  V30 10 1 10 5
M  V30 11 1 11 5
M  V30 12 1 12 3
M  V30 13 1 13 1
M  V30 END BOND
M  V30 END CTAB
M  END
$$$$
R-group 295 (43944-1)
     RDKit          3D

  0  0  0  0  0  0  0  0  0  0999 V3000
M  V30 BEGIN CTAB
M  V30 COUNTS 13 13 0 0 1
M  V30 BEGIN ATOM
M  V30 1 C 73.956500 55.226900 41.689300 0 CFG=1
M  V30 2 F 73.273000 55.821300 40.701700 0
M  V30 3 C 75.422300 55.590000 41.493600 0
M  V30 4 C 75.474300 57.027800 41.975700 0
M  V30 5 O 74.371000 57.211300 42.865200 0
M  V30 6 C 73.663700 55.988200 42.984700 0
M  V30 7 H 76.066700 54.994400 42.125200 0
M  V30 8 H 75.787400 55.498100 40.472800 0
M  V30 9 H 76.425300 57.279200 42.445600 0
M  V30 10 H 75.343000 57.658000 41.105100 0
M  V30 11 H 72.602800 56.146600 43.179200 0
M  V30 12 H 74.077700 55.456400 43.839000 0
M  V30 13 R 73.580900 53.711700 41.743900 0
M  V30 END ATOM
M  V30 BEGIN BOND
M  V30 1 1 2 1
M  V30 2 1 3 1
M  V30 3 1 4 3
M  V30 4 1 5 4
M  V30 5 1 6 1
M  V30 6 1 6 5
M  V30 7 1 7 3
M  V30 8 1 8 3
M  V30 9 1 9 4
M  V30 10 1 10 4
M  V30 11 1 11 6
M  V30 12 1 12 6
M  V30 13 1 1 13 CFG=1
M  V30 END BOND
M  V30 END CTAB
M  END
$$$$
R-group 296 (6755-1)
     RDKit          3D

  0  0  0  0  0  0  0  0  0  0999 V3000
M  V30 BEGIN CTAB
M  V30 COUNTS 12 12 0 0 1
M  V30 BEGIN ATOM
M  V30 1 C 74.450500 55.089700 41.810700 0 CFG=1
M  V30 2 C 73.936700 56.175200 40.857300 0
M  V30 3 C 74.259300 57.191800 41.942300 0 CFG=1
M  V30 4 F 73.272200 58.058100 42.124900 0
M  V30 5 C 74.217800 56.061700 42.960500 0
M  V30 6 H 75.527900 55.009800 41.640800 0
M  V30 7 H 74.512700 56.291200 39.938500 0
M  V30 8 H 72.872300 56.105900 40.656900 0
M  V30 9 H 75.238900 57.652100 41.827200 0
M  V30 10 H 73.227500 55.950100 43.400300 0
M  V30 11 H 75.014000 56.057800 43.705000 0
M  V30 12 R 73.803800 53.707100 41.873100 0
M  V30 END ATOM
M  V30 BEGIN BOND
M  V30 1 1 2 1
M  V30 2 1 3 2
M  V30 3 1 4 3
M  V30 4 1 5 1
M  V30 5 1 5 3
M  V30 6 1 1 6 CFG=3
M  V30 7 1 7 2
M  V30 8 1 8 2
M  V30 9 1 3 9 CFG=3
M  V30 10 1 10 5
M  V30 11 1 11 5
M  V30 12 1 12 1
M  V30 END BOND
M  V30 END CTAB
M  END
$$$$
R-group 297 (42797-1)
     RDKit          3D

  0  0  0  0  0  0  0  0  0  0999 V3000
M  V30 BEGIN CTAB
M  V30 COUNTS 16 16 0 0 1
M  V30 BEGIN ATOM
M  V30 1 C 73.222500 54.662800 42.195400 0
M  V30 2 O 74.434100 55.214800 42.652300 0
M  V30 3 C 74.376600 56.609300 42.734600 0
M  V30 4 C 75.760100 57.103800 43.141600 0
M  V30 5 C 76.074800 57.258100 41.640800 0
M  V30 6 C 74.569200 57.260100 41.361800 0
M  V30 7 H 72.872000 55.262700 41.361600 0
M  V30 8 H 72.421500 54.681200 42.925200 0
M  V30 9 H 73.551800 57.002900 43.332000 0
M  V30 10 H 75.671900 58.012000 43.723400 0
M  V30 11 H 76.365900 56.360700 43.660800 0
M  V30 12 H 76.599700 58.158900 41.325800 0
M  V30 13 H 76.551000 56.367500 41.230500 0
M  V30 14 H 74.288400 56.660200 40.493900 0
M  V30 15 H 74.073400 58.231400 41.328000 0
M  V30 16 R 73.495000 53.253200 41.688300 0
M  V30 END ATOM
M  V30 BEGIN BOND
M  V30 1 1 2 1
M  V30 2 1 3 2
M  V30 3 1 4 3
M  V30 4 1 5 4
M  V30 5 1 6 3
M  V30 6 1 6 5
M  V30 7 1 7 1
M  V30 8 1 8 1
M  V30 9 1 9 3
M  V30 10 1 10 4
M  V30 11 1 11 4
M  V30 12 1 12 5
M  V30 13 1 13 5
M  V30 14 1 14 6
M  V30 15 1 15 6
M  V30 16 1 16 1
M  V30 END BOND
M  V30 END CTAB
M  END
$$$$
R-group 298 (18317-1)
     RDKit          3D

  0  0  0  0  0  0  0  0  0  0999 V3000
M  V30 BEGIN CTAB
M  V30 COUNTS 21 21 0 0 1
M  V30 BEGIN ATOM
M  V30 1 C 74.008900 55.084700 41.276800 0 CFG=1
M  V30 2 C 73.211100 55.743600 40.111200 0
M  V30 3 C 75.499000 55.455900 41.120500 0
M  V30 4 C 75.665100 56.857800 41.694000 0
M  V30 5 C 74.763800 56.769700 42.917600 0 CFG=1
M  V30 6 C 74.092100 58.057900 43.324200 0
M  V30 7 C 73.670900 55.801900 42.560800 0
M  V30 8 H 73.276300 56.833700 40.147600 0
M  V30 9 H 73.599400 55.439200 39.138000 0
M  V30 10 H 72.150200 55.491200 40.127600 0
M  V30 11 H 76.072200 54.805800 41.753300 0
M  V30 12 H 75.907000 55.366500 40.124600 0
M  V30 13 H 75.326800 57.626900 40.994700 0
M  V30 14 H 76.701400 57.081000 41.954700 0
M  V30 15 H 75.364600 56.350500 43.724000 0
M  V30 16 H 73.648400 58.528400 42.446700 0
M  V30 17 H 73.281300 57.919200 44.048500 0
M  V30 18 H 74.845500 58.714900 43.724700 0
M  V30 19 H 72.737300 56.324300 42.526100 0
M  V30 20 H 73.582400 55.086100 43.340600 0
M  V30 21 R 73.673300 53.558300 41.512500 0
M  V30 END ATOM
M  V30 BEGIN BOND
M  V30 1 1 2 1
M  V30 2 1 3 1
M  V30 3 1 4 3
M  V30 4 1 5 4
M  V30 5 1 6 5
M  V30 6 1 7 1
M  V30 7 1 7 5
M  V30 8 1 8 2
M  V30 9 1 9 2
M  V30 10 1 10 2
M  V30 11 1 11 3
M  V30 12 1 12 3
M  V30 13 1 13 4
M  V30 14 1 14 4
M  V30 15 1 5 15 CFG=1
M  V30 16 1 16 6
M  V30 17 1 17 6
M  V30 18 1 18 6
M  V30 19 1 19 7
M  V30 20 1 20 7
M  V30 21 1 1 21 CFG=1
M  V30 END BOND
M  V30 END CTAB
M  END
$$$$
R-group 299 (2384-1)
     RDKit          3D

  0  0  0  0  0  0  0  0  0  0999 V3000
M  V30 BEGIN CTAB
M  V30 COUNTS 10 10 0 0 1
M  V30 BEGIN ATOM
M  V30 1 C 73.708100 54.851100 41.469700 0
M  V30 2 C 73.419600 55.511700 40.248800 0
M  V30 3 C 73.429000 56.910600 40.255200 0
M  V30 4 N 73.671700 57.619500 41.378600 0
M  V30 5 N 74.041900 57.014000 42.504300 0
M  V30 6 C 74.073500 55.671300 42.551900 0
M  V30 7 H 73.144700 55.008300 39.336900 0
M  V30 8 H 73.183900 57.471900 39.366100 0
M  V30 9 H 74.305900 55.264900 43.523400 0
M  V30 10 R 73.542900 53.345400 41.661100 0
M  V30 END ATOM
M  V30 BEGIN BOND
M  V30 1 2 2 1
M  V30 2 1 3 2
M  V30 3 2 4 3
M  V30 4 1 5 4
M  V30 5 1 6 1
M  V30 6 2 6 5
M  V30 7 1 7 2
M  V30 8 1 8 3
M  V30 9 1 9 6
M  V30 10 1 10 1
M  V30 END BOND
M  V30 END CTAB
M  END
$$$$
R-group 300 (42989-2)
     RDKit          3D

  0  0  0  0  0  0  0  0  0  0999 V3000
M  V30 BEGIN CTAB
M  V30 COUNTS 15 15 0 0 1
M  V30 BEGIN ATOM
M  V30 1 C 74.719100 55.327300 42.029500 0 CFG=1
M  V30 2 C 74.379400 56.679800 41.428200 0 CFG=1
M  V30 3 C 73.213300 56.974600 40.507700 0
M  V30 4 C 74.242200 56.470000 42.923800 0 CFG=1
M  V30 5 C 72.872000 56.580300 43.597800 0
M  V30 6 H 75.795300 55.171600 42.017500 0
M  V30 7 H 75.246000 57.276900 41.151000 0
M  V30 8 H 72.471700 56.189000 40.525000 0
M  V30 9 H 72.741500 57.917200 40.786900 0
M  V30 10 H 73.571200 57.064000 39.481600 0
M  V30 11 H 75.024400 56.998600 43.463700 0
M  V30 12 H 72.171200 55.809800 43.301400 0
M  V30 13 H 72.872600 56.458200 44.678000 0
M  V30 14 H 72.472400 57.571200 43.394700 0
M  V30 15 R 73.972500 53.984200 41.903400 0
M  V30 END ATOM
M  V30 BEGIN BOND
M  V30 1 1 2 1
M  V30 2 1 3 2
M  V30 3 1 4 1
M  V30 4 1 4 2
M  V30 5 1 5 4
M  V30 6 1 1 6 CFG=1
M  V30 7 1 2 7 CFG=1
M  V30 8 1 8 3
M  V30 9 1 9 3
M  V30 10 1 10 3
M  V30 11 1 4 11 CFG=1
M  V30 12 1 12 5
M  V30 13 1 13 5
M  V30 14 1 14 5
M  V30 15 1 15 1
M  V30 END BOND
M  V30 END CTAB
M  END
$$$$
R-group 301 (29063-1)
     RDKit          3D

  0  0  0  0  0  0  0  0  0  0999 V3000
M  V30 BEGIN CTAB
M  V30 COUNTS 18 18 0 0 1
M  V30 BEGIN ATOM
M  V30 1 C 74.021600 55.323500 41.854000 0 CFG=2
M  V30 2 C 73.488500 55.953800 43.153500 0
M  V30 3 C 73.432000 57.465800 42.968100 0
M  V30 4 C 73.612600 57.690000 41.476700 0
M  V30 5 C 73.513900 56.333800 40.776900 0 CFG=1
M  V30 6 C 74.296300 56.427000 39.456100 0
M  V30 7 H 75.110000 55.396200 41.868800 0
M  V30 8 H 72.459900 55.642900 43.323200 0
M  V30 9 H 74.072400 55.652500 44.021800 0
M  V30 10 H 72.479100 57.867400 43.320800 0
M  V30 11 H 74.227500 57.968700 43.517900 0
M  V30 12 H 74.625300 58.057900 41.333500 0
M  V30 13 H 72.923800 58.432500 41.071000 0
M  V30 14 H 72.472600 56.149900 40.524700 0
M  V30 15 H 75.369300 56.457900 39.640000 0
M  V30 16 H 74.070900 55.613500 38.771200 0
M  V30 17 H 74.035000 57.340200 38.924600 0
M  V30 18 R 73.627800 53.803700 41.748900 0
M  V30 END ATOM
M  V30 BEGIN BOND
M  V30 1 1 2 1
M  V30 2 1 3 2
M  V30 3 1 4 3
M  V30 4 1 5 1
M  V30 5 1 5 4
M  V30 6 1 6 5
M  V30 7 1 1 7 CFG=1
M  V30 8 1 8 2
M  V30 9 1 9 2
M  V30 10 1 10 3
M  V30 11 1 11 3
M  V30 12 1 12 4
M  V30 13 1 13 4
M  V30 14 1 5 14 CFG=3
M  V30 15 1 15 6
M  V30 16 1 16 6
M  V30 17 1 17 6
M  V30 18 1 18 1
M  V30 END BOND
M  V30 END CTAB
M  END
$$$$
R-group 302 (41340-3)
     RDKit          3D

  0  0  0  0  0  0  0  0  0  0999 V3000
M  V30 BEGIN CTAB
M  V30 COUNTS 14 14 0 0 1
M  V30 BEGIN ATOM
M  V30 1 C 73.556300 54.906100 41.797400 0 CFG=1
M  V30 2 C 74.853300 55.583000 42.233200 0
M  V30 3 C 74.618900 56.989700 41.722600 0 CFG=2
M  V30 4 O 73.672200 57.658000 42.530800 0
M  V30 5 C 73.969000 56.742500 40.368500 0
M  V30 6 O 73.272400 55.513000 40.525100 0
M  V30 7 H 72.796700 55.216500 42.515300 0
M  V30 8 H 75.025300 55.537500 43.309300 0
M  V30 9 H 75.710700 55.142800 41.723900 0
M  V30 10 H 75.535900 57.574300 41.649200 0
M  V30 11 H 74.732000 56.604600 39.601600 0
M  V30 12 H 73.309800 57.548500 40.043500 0
M  V30 13 H 73.497900 58.504800 42.148600 0
M  V30 14 R 73.502400 53.358500 41.717200 0
M  V30 END ATOM
M  V30 BEGIN BOND
M  V30 1 1 2 1
M  V30 2 1 3 2
M  V30 3 1 4 3
M  V30 4 1 5 3
M  V30 5 1 6 1
M  V30 6 1 6 5
M  V30 7 1 1 7 CFG=1
M  V30 8 1 8 2
M  V30 9 1 9 2
M  V30 10 1 3 10 CFG=3
M  V30 11 1 11 5
M  V30 12 1 12 5
M  V30 13 1 13 4
M  V30 14 1 14 1
M  V30 END BOND
M  V30 END CTAB
M  END
$$$$
R-group 303 (40-1)
     RDKit          3D

  0  0  0  0  0  0  0  0  0  0999 V3000
M  V30 BEGIN CTAB
M  V30 COUNTS 12 11 0 0 1
M  V30 BEGIN ATOM
M  V30 1 O 73.707100 55.106400 42.123800 0
M  V30 2 C 74.917700 55.736800 41.704100 0
M  V30 3 C 75.517000 56.445700 42.923400 0
M  V30 4 C 74.594100 56.737000 40.584200 0
M  V30 5 H 75.658000 55.019500 41.353300 0
M  V30 6 H 76.448300 56.952100 42.666800 0
M  V30 7 H 74.833300 57.193100 43.324500 0
M  V30 8 H 75.734000 55.733200 43.719500 0
M  V30 9 H 75.495600 57.252000 40.253100 0
M  V30 10 H 74.159400 56.245300 39.715000 0
M  V30 11 H 73.883100 57.490300 40.925800 0
M  V30 12 R 73.504700 53.721100 41.825800 0
M  V30 END ATOM
M  V30 BEGIN BOND
M  V30 1 1 2 1
M  V30 2 1 3 2
M  V30 3 1 4 2
M  V30 4 1 5 2
M  V30 5 1 6 3
M  V30 6 1 7 3
M  V30 7 1 8 3
M  V30 8 1 9 4
M  V30 9 1 10 4
M  V30 10 1 11 4
M  V30 11 1 12 1
M  V30 END BOND
M  V30 END CTAB
M  END
$$$$
R-group 304 (1563-1)
     RDKit          3D

  0  0  0  0  0  0  0  0  0  0999 V3000
M  V30 BEGIN CTAB
M  V30 COUNTS 17 17 0 0 1
M  V30 BEGIN ATOM
M  V30 1 O 73.925900 54.875100 41.981100 0
M  V30 2 C 73.751200 55.732700 43.086100 0
M  V30 3 C 74.390700 57.072700 42.699700 0 CFG=1
M  V30 4 C 75.841700 56.929100 42.218000 0
M  V30 5 C 75.775200 57.141200 40.713100 0
M  V30 6 C 74.276600 57.257300 40.397800 0
M  V30 7 O 73.671000 57.657600 41.625200 0
M  V30 8 H 72.693900 55.852100 43.329200 0
M  V30 9 H 74.261300 55.331200 43.962100 0
M  V30 10 H 74.329700 57.757700 43.544300 0
M  V30 11 H 76.486500 57.657700 42.696400 0
M  V30 12 H 76.250000 55.949700 42.457200 0
M  V30 13 H 76.320900 58.051800 40.455000 0
M  V30 14 H 76.240600 56.324200 40.161700 0
M  V30 15 H 74.072700 57.941700 39.575500 0
M  V30 16 H 73.881000 56.293300 40.074200 0
M  V30 17 R 73.559900 53.523500 42.134400 0
M  V30 END ATOM
M  V30 BEGIN BOND
M  V30 1 1 2 1
M  V30 2 1 3 2
M  V30 3 1 4 3
M  V30 4 1 5 4
M  V30 5 1 6 5
M  V30 6 1 7 3
M  V30 7 1 7 6
M  V30 8 1 8 2
M  V30 9 1 9 2
M  V30 10 1 3 10 CFG=1
M  V30 11 1 11 4
M  V30 12 1 12 4
M  V30 13 1 13 5
M  V30 14 1 14 5
M  V30 15 1 15 6
M  V30 16 1 16 6
M  V30 17 1 17 1
M  V30 END BOND
M  V30 END CTAB
M  END
$$$$
R-group 305 (13437-1)
     RDKit          3D

  0  0  0  0  0  0  0  0  0  0999 V3000
M  V30 BEGIN CTAB
M  V30 COUNTS 15 15 0 0 1
M  V30 BEGIN ATOM
M  V30 1 C 72.678200 54.157800 41.896000 0
M  V30 2 C 73.672500 55.203700 41.567500 0
M  V30 3 C 73.771900 55.896600 40.393200 0
M  V30 4 C 74.871800 56.780400 40.389000 0
M  V30 5 C 75.564200 56.782300 41.566600 0
M  V30 6 C 76.702900 57.658000 41.921100 0
M  V30 7 S 74.873200 55.685900 42.715400 0
M  V30 8 H 71.771800 54.321600 41.312100 0
M  V30 9 H 72.363000 54.250200 42.924500 0
M  V30 10 H 73.116600 55.780400 39.543800 0
M  V30 11 H 75.103700 57.392100 39.531300 0
M  V30 12 H 76.681300 57.938200 42.968700 0
M  V30 13 H 77.672000 57.257900 41.705900 0
M  V30 14 H 76.644800 58.550800 41.324400 0
M  V30 15 R 73.205200 52.757400 41.608000 0
M  V30 END ATOM
M  V30 BEGIN BOND
M  V30 1 1 2 1
M  V30 2 2 3 2
M  V30 3 1 4 3
M  V30 4 2 5 4
M  V30 5 1 6 5
M  V30 6 1 7 2
M  V30 7 1 7 5
M  V30 8 1 8 1
M  V30 9 1 9 1
M  V30 10 1 10 3
M  V30 11 1 11 4
M  V30 12 1 12 6
M  V30 13 1 13 6
M  V30 14 1 14 6
M  V30 15 1 15 1
M  V30 END BOND
M  V30 END CTAB
M  END
$$$$
R-group 306 (10910-2)
     RDKit          3D

  0  0  0  0  0  0  0  0  0  0999 V3000
M  V30 BEGIN CTAB
M  V30 COUNTS 17 18 0 0 1
M  V30 BEGIN ATOM
M  V30 1 C 73.623700 54.873000 42.313300 0
M  V30 2 C 74.915400 55.656300 42.206700 0 CFG=1
M  V30 3 C 75.344200 56.464800 40.998700 0 CFG=1
M  V30 4 C 74.416700 56.870600 39.879200 0
M  V30 5 O 73.240900 57.350600 40.522900 0
M  V30 6 C 73.544800 57.846900 41.826100 0
M  V30 7 C 74.820800 57.149400 42.221900 0 CFG=1
M  V30 8 H 73.271800 54.974800 43.324600 0
M  V30 9 H 72.872200 55.344000 41.701400 0
M  V30 10 H 75.709500 55.256500 42.823500 0
M  V30 11 H 76.410800 56.504300 40.783900 0
M  V30 12 H 74.194500 56.054100 39.197000 0
M  V30 13 H 74.871400 57.657700 39.290100 0
M  V30 14 H 72.752000 57.623100 42.536900 0
M  V30 15 H 73.672400 58.916400 41.794700 0
M  V30 16 H 75.493300 57.657500 42.908300 0
M  V30 17 R 73.667100 53.417800 41.859300 0
M  V30 END ATOM
M  V30 BEGIN BOND
M  V30 1 1 2 1
M  V30 2 1 3 2
M  V30 3 1 4 3
M  V30 4 1 5 4
M  V30 5 1 6 5
M  V30 6 1 7 2
M  V30 7 1 7 3
M  V30 8 1 7 6
M  V30 9 1 8 1
M  V30 10 1 9 1
M  V30 11 1 2 10 CFG=1
M  V30 12 1 3 11 CFG=3
M  V30 13 1 12 4
M  V30 14 1 13 4
M  V30 15 1 14 6
M  V30 16 1 15 6
M  V30 17 1 7 16 CFG=1
M  V30 18 1 17 1
M  V30 END BOND
M  V30 END CTAB
M  END
$$$$
R-group 307 (2310-1)
     RDKit          3D

  0  0  0  0  0  0  0  0  0  0999 V3000
M  V30 BEGIN CTAB
M  V30 COUNTS 19 19 0 0 1
M  V30 BEGIN ATOM
M  V30 1 C 72.747400 54.342200 42.044200 0
M  V30 2 C 73.580100 55.642900 41.914000 0 CFG=1
M  V30 3 C 75.039500 55.555800 42.420300 0
M  V30 4 C 75.811000 56.843300 42.131200 0
M  V30 5 C 75.662200 57.159900 40.644100 0
M  V30 6 C 74.178700 57.258200 40.264900 0
M  V30 7 O 73.549800 56.024200 40.537100 0
M  V30 8 H 71.827900 54.458000 41.472600 0
M  V30 9 H 72.366300 54.188000 43.033300 0
M  V30 10 H 73.069800 56.418900 42.486500 0
M  V30 11 H 75.064200 55.330200 43.484500 0
M  V30 12 H 75.572100 54.759400 41.902500 0
M  V30 13 H 75.436200 57.657200 42.753000 0
M  V30 14 H 76.869100 56.720400 42.357600 0
M  V30 15 H 76.223700 58.056900 40.384900 0
M  V30 16 H 76.087900 56.340100 40.076800 0
M  V30 17 H 73.672000 58.056000 40.811000 0
M  V30 18 H 74.071700 57.472800 39.201500 0
M  V30 19 R 73.360100 53.036600 41.536300 0
M  V30 END ATOM
M  V30 BEGIN BOND
M  V30 1 1 2 1
M  V30 2 1 3 2
M  V30 3 1 4 3
M  V30 4 1 5 4
M  V30 5 1 6 5
M  V30 6 1 7 2
M  V30 7 1 7 6
M  V30 8 1 8 1
M  V30 9 1 9 1
M  V30 10 1 2 10 CFG=1
M  V30 11 1 11 3
M  V30 12 1 12 3
M  V30 13 1 13 4
M  V30 14 1 14 4
M  V30 15 1 15 5
M  V30 16 1 16 5
M  V30 17 1 17 6
M  V30 18 1 18 6
M  V30 19 1 19 1
M  V30 END BOND
M  V30 END CTAB
M  END
$$$$
R-group 308 (777-1)
     RDKit          3D

  0  0  0  0  0  0  0  0  0  0999 V3000
M  V30 BEGIN CTAB
M  V30 COUNTS 11 11 0 0 1
M  V30 BEGIN ATOM
M  V30 1 C 74.072000 54.884300 41.720900 0
M  V30 2 C 74.779600 55.739700 42.524800 0
M  V30 3 O 74.617200 57.011900 42.058300 0
M  V30 4 C 73.854800 56.858100 40.945400 0
M  V30 5 C 73.203600 58.025700 40.318300 0
M  V30 6 N 73.593300 55.605200 40.646200 0
M  V30 7 H 75.308500 55.634200 43.460700 0
M  V30 8 H 72.168100 57.747900 40.124900 0
M  V30 9 H 73.201500 58.857700 41.018000 0
M  V30 10 H 73.672300 58.293000 39.369800 0
M  V30 11 R 73.686700 53.446500 41.887400 0
M  V30 END ATOM
M  V30 BEGIN BOND
M  V30 1 2 2 1
M  V30 2 1 3 2
M  V30 3 1 4 3
M  V30 4 1 5 4
M  V30 5 1 6 1
M  V30 6 2 6 4
M  V30 7 1 7 2
M  V30 8 1 8 5
M  V30 9 1 9 5
M  V30 10 1 10 5
M  V30 11 1 11 1
M  V30 END BOND
M  V30 END CTAB
M  END
$$$$
R-group 309 (13912-1)
     RDKit          3D

  0  0  0  0  0  0  0  0  0  0999 V3000
M  V30 BEGIN CTAB
M  V30 COUNTS 8 8 0 0 1
M  V30 BEGIN ATOM
M  V30 1 C 73.874500 54.679000 41.590800 0
M  V30 2 N 74.445800 55.482900 42.497200 0
M  V30 3 C 74.307400 56.826200 42.158900 0
M  V30 4 C 73.672000 56.958800 40.958700 0
M  V30 5 F 73.033500 58.058000 40.544400 0
M  V30 6 S 73.348600 55.508400 40.124700 0
M  V30 7 H 74.564200 57.590800 42.875500 0
M  V30 8 R 73.614500 53.229500 41.807200 0
M  V30 END ATOM
M  V30 BEGIN BOND
M  V30 1 2 2 1
M  V30 2 1 3 2
M  V30 3 2 4 3
M  V30 4 1 5 4
M  V30 5 1 6 1
M  V30 6 1 6 4
M  V30 7 1 7 3
M  V30 8 1 8 1
M  V30 END BOND
M  V30 END CTAB
M  END
$$$$
R-group 310 (11948-1)
     RDKit          3D

  0  0  0  0  0  0  0  0  0  0999 V3000
M  V30 BEGIN CTAB
M  V30 COUNTS 22 23 0 0 1
M  V30 BEGIN ATOM
M  V30 1 C 73.667600 54.919200 41.901600 0 CFG=2
M  V30 2 C 73.056800 55.834700 40.815600 0
M  V30 3 C 74.119000 56.145000 39.775000 0
M  V30 4 C 75.396400 56.152000 40.610700 0 CFG=1
M  V30 5 C 75.796000 57.527100 41.088400 0
M  V30 6 C 76.458900 57.215700 42.390300 0
M  V30 7 C 75.462000 56.312600 43.055200 0
M  V30 8 C 75.126700 55.371900 41.904100 0 CFG=1
M  V30 9 H 73.212400 55.181500 42.858700 0
M  V30 10 H 72.131100 55.470600 40.370500 0
M  V30 11 H 72.872100 56.800200 41.286100 0
M  V30 12 H 74.129600 55.395100 38.987400 0
M  V30 13 H 73.931000 57.095100 39.275400 0
M  V30 14 H 76.253400 55.703900 40.124700 0
M  V30 15 H 76.433800 58.058800 40.384300 0
M  V30 16 H 74.880300 58.056700 41.325100 0
M  V30 17 H 77.272300 56.592000 42.118100 0
M  V30 18 H 76.816400 58.057600 42.970500 0
M  V30 19 H 74.588300 56.900200 43.325000 0
M  V30 20 H 75.863900 55.800900 43.935500 0
M  V30 21 H 75.842800 54.563700 41.910300 0
M  V30 22 R 73.476300 53.378100 41.774700 0
M  V30 END ATOM
M  V30 BEGIN BOND
M  V30 1 1 2 1
M  V30 2 1 3 2
M  V30 3 1 4 3
M  V30 4 1 5 4
M  V30 5 1 6 5
M  V30 6 1 7 6
M  V30 7 1 8 1
M  V30 8 1 8 4
M  V30 9 1 8 7
M  V30 10 1 1 9 CFG=1
M  V30 11 1 10 2
M  V30 12 1 11 2
M  V30 13 1 12 3
M  V30 14 1 13 3
M  V30 15 1 4 14 CFG=3
M  V30 16 1 15 5
M  V30 17 1 16 5
M  V30 18 1 17 6
M  V30 19 1 18 6
M  V30 20 1 19 7
M  V30 21 1 20 7
M  V30 22 1 8 21 CFG=3
M  V30 23 1 22 1
M  V30 END BOND
M  V30 END CTAB
M  END
$$$$
R-group 311 (11137-1)
     RDKit          3D

  0  0  0  0  0  0  0  0  0  0999 V3000
M  V30 BEGIN CTAB
M  V30 COUNTS 16 15 0 0 1
M  V30 BEGIN ATOM
M  V30 1 C 73.009400 57.456700 40.202200 0
M  V30 2 C 73.649700 58.009200 41.495200 0
M  V30 3 C 73.610600 57.153100 42.750200 0
M  V30 4 S 74.577000 55.622500 42.482600 0
M  V30 5 O 75.272200 55.257900 43.724700 0
M  V30 6 O 75.326100 55.718200 41.224100 0
M  V30 7 N 73.276900 54.531400 42.258200 0
M  V30 8 H 73.464300 57.940100 39.336300 0
M  V30 9 H 73.164300 56.387200 40.077000 0
M  V30 10 H 71.940900 57.638900 40.124900 0
M  V30 11 H 73.272200 59.005100 41.724700 0
M  V30 12 H 74.719700 58.058000 41.324700 0
M  V30 13 H 72.605800 56.907000 43.084300 0
M  V30 14 H 74.097100 57.694900 43.558200 0
M  V30 15 H 72.767400 54.498000 43.149100 0
M  V30 16 R 73.490600 53.168500 41.843600 0
M  V30 END ATOM
M  V30 BEGIN BOND
M  V30 1 1 2 1
M  V30 2 1 3 2
M  V30 3 1 4 3
M  V30 4 2 5 4
M  V30 5 2 6 4
M  V30 6 1 7 4
M  V30 7 1 8 1
M  V30 8 1 9 1
M  V30 9 1 10 1
M  V30 10 1 11 2
M  V30 11 1 12 2
M  V30 12 1 13 3
M  V30 13 1 14 3
M  V30 14 1 15 7
M  V30 15 1 16 7
M  V30 END BOND
M  V30 END CTAB
M  END
$$$$
R-group 312 (1379-1)
     RDKit          3D

  0  0  0  0  0  0  0  0  0  0999 V3000
M  V30 BEGIN CTAB
M  V30 COUNTS 17 16 0 0 1
M  V30 BEGIN ATOM
M  V30 1 C 76.166700 57.125200 41.786900 0
M  V30 2 C 75.656500 55.678600 41.827600 0
M  V30 3 C 74.125200 55.444000 41.840000 0
M  V30 4 C 73.558900 56.055600 43.143600 0
M  V30 5 C 73.520900 56.237800 40.657600 0
M  V30 6 H 77.254200 57.156900 41.724700 0
M  V30 7 H 75.887500 57.657300 42.694700 0
M  V30 8 H 75.796000 57.657900 40.916500 0
M  V30 9 H 76.072200 55.154600 40.975900 0
M  V30 10 H 76.071800 55.257900 42.734200 0
M  V30 11 H 72.496400 55.849500 43.276600 0
M  V30 12 H 74.072300 55.657700 44.016500 0
M  V30 13 H 73.674200 57.138900 43.174400 0
M  V30 14 H 72.472200 56.016000 40.522500 0
M  V30 15 H 73.583700 57.315800 40.807000 0
M  V30 16 H 74.024700 56.014700 39.716900 0
M  V30 17 R 73.757700 53.890800 41.773500 0
M  V30 END ATOM
M  V30 BEGIN BOND
M  V30 1 1 2 1
M  V30 2 1 3 2
M  V30 3 1 4 3
M  V30 4 1 5 3
M  V30 5 1 6 1
M  V30 6 1 7 1
M  V30 7 1 8 1
M  V30 8 1 9 2
M  V30 9 1 10 2
M  V30 10 1 11 4
M  V30 11 1 12 4
M  V30 12 1 13 4
M  V30 13 1 14 5
M  V30 14 1 15 5
M  V30 15 1 16 5
M  V30 16 1 17 3
M  V30 END BOND
M  V30 END CTAB
M  END
$$$$
R-group 313 (789-1)
     RDKit          3D

  0  0  0  0  0  0  0  0  0  0999 V3000
M  V30 BEGIN CTAB
M  V30 COUNTS 10 10 0 0 1
M  V30 BEGIN ATOM
M  V30 1 C 73.673300 54.674700 41.458100 0
M  V30 2 C 73.287000 55.350000 40.265000 0
M  V30 3 N 73.296600 56.691200 40.179800 0
M  V30 4 C 73.673000 57.332100 41.304500 0
M  V30 5 C 74.128300 56.687100 42.457600 0
M  V30 6 N 74.144500 55.351300 42.525300 0
M  V30 7 H 72.914000 54.851100 39.385700 0
M  V30 8 H 73.641400 58.410100 41.285400 0
M  V30 9 H 74.456200 57.241800 43.324500 0
M  V30 10 R 73.515300 53.175800 41.648400 0
M  V30 END ATOM
M  V30 BEGIN BOND
M  V30 1 2 2 1
M  V30 2 1 3 2
M  V30 3 2 4 3
M  V30 4 1 5 4
M  V30 5 1 6 1
M  V30 6 2 6 5
M  V30 7 1 7 2
M  V30 8 1 8 4
M  V30 9 1 9 5
M  V30 10 1 10 1
M  V30 END BOND
M  V30 END CTAB
M  END
$$$$
R-group 314 (9975-1)
     RDKit          3D

  0  0  0  0  0  0  0  0  0  0999 V3000
M  V30 BEGIN CTAB
M  V30 COUNTS 10 10 0 0 1
M  V30 BEGIN ATOM
M  V30 1 C 74.314300 54.898100 42.122700 0
M  V30 2 O 75.083900 55.221800 43.201400 0
M  V30 3 C 75.672200 56.413600 42.933000 0
M  V30 4 C 75.330800 56.858100 41.707900 0
M  V30 5 C 74.337600 55.968600 41.278300 0
M  V30 6 C 73.463900 56.236400 40.174300 0
M  V30 7 N 72.733500 56.457800 39.324700 0
M  V30 8 H 76.322700 56.790100 43.709600 0
M  V30 9 H 75.658100 57.788300 41.278800 0
M  V30 10 R 73.712800 53.517800 42.118200 0
M  V30 END ATOM
M  V30 BEGIN BOND
M  V30 1 1 2 1
M  V30 2 1 3 2
M  V30 3 2 4 3
M  V30 4 2 5 1
M  V30 5 1 5 4
M  V30 6 1 6 5
M  V30 7 3 7 6
M  V30 8 1 8 3
M  V30 9 1 9 4
M  V30 10 1 10 1
M  V30 END BOND
M  V30 END CTAB
M  END
$$$$
R-group 315 (5041-1)
     RDKit          3D

  0  0  0  0  0  0  0  0  0  0999 V3000
M  V30 BEGIN CTAB
M  V30 COUNTS 20 19 0 0 1
M  V30 BEGIN ATOM
M  V30 1 C 76.765200 57.419600 40.927400 0
M  V30 2 C 75.314700 57.037100 41.063700 0
M  V30 3 C 75.144000 55.556600 41.433400 0
M  V30 4 C 73.666400 55.129500 41.611400 0
M  V30 5 C 73.152300 55.776900 42.924100 0
M  V30 6 C 72.853500 55.700600 40.422800 0
M  V30 7 H 76.872500 58.458000 40.660700 0
M  V30 8 H 77.223400 56.847700 40.128000 0
M  V30 9 H 77.276500 57.256100 41.871700 0
M  V30 10 H 74.840900 57.661800 41.813400 0
M  V30 11 H 74.846000 57.258000 40.106100 0
M  V30 12 H 75.649200 54.961900 40.678700 0
M  V30 13 H 75.681700 55.360900 42.357900 0
M  V30 14 H 72.197200 55.368600 43.262300 0
M  V30 15 H 73.869200 55.649300 43.730800 0
M  V30 16 H 72.998600 56.851800 42.821000 0
M  V30 17 H 71.859400 55.257900 40.354000 0
M  V30 18 H 72.697200 56.778900 40.500800 0
M  V30 19 H 73.341100 55.518600 39.465100 0
M  V30 20 R 73.491700 53.564800 41.690000 0
M  V30 END ATOM
M  V30 BEGIN BOND
M  V30 1 1 2 1
M  V30 2 1 3 2
M  V30 3 1 4 3
M  V30 4 1 5 4
M  V30 5 1 6 4
M  V30 6 1 7 1
M  V30 7 1 8 1
M  V30 8 1 9 1
M  V30 9 1 10 2
M  V30 10 1 11 2
M  V30 11 1 12 3
M  V30 12 1 13 3
M  V30 13 1 14 5
M  V30 14 1 15 5
M  V30 15 1 16 5
M  V30 16 1 17 6
M  V30 17 1 18 6
M  V30 18 1 19 6
M  V30 19 1 20 4
M  V30 END BOND
M  V30 END CTAB
M  END
$$$$
R-group 316 (40019-1)
     RDKit          3D

  0  0  0  0  0  0  0  0  0  0999 V3000
M  V30 BEGIN CTAB
M  V30 COUNTS 11 10 0 0 1
M  V30 BEGIN ATOM
M  V30 1 C 75.701500 57.187300 42.388600 0
M  V30 2 C 75.433800 55.681200 42.334200 0
M  V30 3 C 73.971200 55.328800 42.011100 0 CFG=1
M  V30 4 F 73.671900 56.038500 40.922100 0
M  V30 5 H 76.760200 57.397600 42.529600 0
M  V30 6 H 75.413700 57.658000 41.448600 0
M  V30 7 H 75.144400 57.658000 43.199700 0
M  V30 8 H 75.722500 55.252800 43.291500 0
M  V30 9 H 76.072300 55.257000 41.567400 0
M  V30 10 H 73.335100 55.718600 42.808400 0
M  V30 11 R 73.628200 53.815400 41.782500 0
M  V30 END ATOM
M  V30 BEGIN BOND
M  V30 1 1 2 1
M  V30 2 1 3 2
M  V30 3 1 4 3
M  V30 4 1 5 1
M  V30 5 1 6 1
M  V30 6 1 7 1
M  V30 7 1 8 2
M  V30 8 1 9 2
M  V30 9 1 3 10 CFG=1
M  V30 10 1 11 3
M  V30 END BOND
M  V30 END CTAB
M  END
$$$$
R-group 317 (25432-1)
     RDKit          3D

  0  0  0  0  0  0  0  0  0  0999 V3000
M  V30 BEGIN CTAB
M  V30 COUNTS 19 19 0 0 1
M  V30 BEGIN ATOM
M  V30 1 C 73.858600 55.098700 41.465900 0
M  V30 2 C 73.133500 55.779100 40.240000 0
M  V30 3 F 73.719400 55.517300 39.073100 0
M  V30 4 F 71.839000 55.485600 40.124400 0
M  V30 5 C 73.361000 55.707900 42.798800 0
M  V30 6 C 73.666400 57.191300 42.937300 0
M  V30 7 O 75.082600 57.258000 42.924500 0
M  V30 8 C 75.652800 56.931700 41.669400 0
M  V30 9 C 75.372000 55.456500 41.380400 0
M  V30 10 H 73.165000 56.864100 40.288500 0
M  V30 11 H 72.317900 55.482900 42.985600 0
M  V30 12 H 73.904800 55.257500 43.625200 0
M  V30 13 H 73.220000 57.818000 42.167000 0
M  V30 14 H 73.272200 57.560800 43.881900 0
M  V30 15 H 75.259100 57.577000 40.886700 0
M  V30 16 H 76.727900 57.105900 41.713900 0
M  V30 17 H 75.930400 54.904800 42.123900 0
M  V30 18 H 75.809800 55.195000 40.421400 0
M  V30 19 R 73.593900 53.541900 41.571700 0
M  V30 END ATOM
M  V30 BEGIN BOND
M  V30 1 1 2 1
M  V30 2 1 3 2
M  V30 3 1 4 2
M  V30 4 1 5 1
M  V30 5 1 6 5
M  V30 6 1 7 6
M  V30 7 1 8 7
M  V30 8 1 9 1
M  V30 9 1 9 8
M  V30 10 1 10 2
M  V30 11 1 11 5
M  V30 12 1 12 5
M  V30 13 1 13 6
M  V30 14 1 14 6
M  V30 15 1 15 8
M  V30 16 1 16 8
M  V30 17 1 17 9
M  V30 18 1 18 9
M  V30 19 1 19 1
M  V30 END BOND
M  V30 END CTAB
M  END
$$$$
R-group 318 (16343-1)
     RDKit          3D

  0  0  0  0  0  0  0  0  0  0999 V3000
M  V30 BEGIN CTAB
M  V30 COUNTS 13 12 0 0 1
M  V30 BEGIN ATOM
M  V30 1 N 73.664900 54.811600 42.126500 0
M  V30 2 C 74.979300 55.409100 41.933700 0 CFG=2
M  V30 3 C 75.499400 55.863200 43.297900 0
M  V30 4 C 74.827000 56.612200 40.996500 0
M  V30 5 F 74.470600 56.235100 39.770200 0
M  V30 6 F 73.886300 57.426100 41.483000 0
M  V30 7 F 76.000000 57.247300 40.924600 0
M  V30 8 H 73.343800 54.999200 43.073800 0
M  V30 9 H 75.674200 54.702300 41.497900 0
M  V30 10 H 76.472200 56.332300 43.207100 0
M  V30 11 H 74.827100 56.616800 43.686800 0
M  V30 12 H 75.582700 55.058800 44.026400 0
M  V30 13 R 73.531900 53.388600 41.865100 0
M  V30 END ATOM
M  V30 BEGIN BOND
M  V30 1 1 2 1
M  V30 2 1 3 2
M  V30 3 1 4 2
M  V30 4 1 5 4
M  V30 5 1 6 4
M  V30 6 1 7 4
M  V30 7 1 8 1
M  V30 8 1 2 9 CFG=3
M  V30 9 1 10 3
M  V30 10 1 11 3
M  V30 11 1 12 3
M  V30 12 1 13 1
M  V30 END BOND
M  V30 END CTAB
M  END
$$$$
R-group 319 (15343-1)
     RDKit          3D

  0  0  0  0  0  0  0  0  0  0999 V3000
M  V30 BEGIN CTAB
M  V30 COUNTS 21 21 0 0 1
M  V30 BEGIN ATOM
M  V30 1 N 73.145700 54.399600 42.124700 0
M  V30 2 C 74.399600 55.080200 42.327400 0
M  V30 3 C 74.253500 56.584900 42.389600 0
M  V30 4 F 73.272400 56.899500 43.237600 0
M  V30 5 C 73.938500 57.225300 41.033500 0
M  V30 6 C 75.120200 57.087700 40.053500 0
M  V30 7 O 76.353200 57.559900 40.606400 0
M  V30 8 C 76.677800 56.986400 41.838400 0
M  V30 9 C 75.593100 57.081100 42.922700 0
M  V30 10 H 72.656300 54.483900 43.015700 0
M  V30 11 H 74.806400 54.771900 43.286600 0
M  V30 12 H 75.117000 54.789000 41.569200 0
M  V30 13 H 73.048400 56.767900 40.599300 0
M  V30 14 H 73.672200 58.272600 41.185600 0
M  V30 15 H 75.244600 56.056100 39.734600 0
M  V30 16 H 74.870900 57.650600 39.154700 0
M  V30 17 H 76.871900 55.942400 41.649500 0
M  V30 18 H 77.582100 57.503000 42.124700 0
M  V30 19 H 75.469800 58.057600 43.324800 0
M  V30 20 H 75.919800 56.501600 43.785100 0
M  V30 21 R 73.318100 52.995600 41.826000 0
M  V30 END ATOM
M  V30 BEGIN BOND
M  V30 1 1 2 1
M  V30 2 1 3 2
M  V30 3 1 4 3
M  V30 4 1 5 3
M  V30 5 1 6 5
M  V30 6 1 7 6
M  V30 7 1 8 7
M  V30 8 1 9 3
M  V30 9 1 9 8
M  V30 10 1 10 1
M  V30 11 1 11 2
M  V30 12 1 12 2
M  V30 13 1 13 5
M  V30 14 1 14 5
M  V30 15 1 15 6
M  V30 16 1 16 6
M  V30 17 1 17 8
M  V30 18 1 18 8
M  V30 19 1 19 9
M  V30 20 1 20 9
M  V30 21 1 21 1
M  V30 END BOND
M  V30 END CTAB
M  END
$$$$
R-group 320 (17365-1)
     RDKit          3D

  0  0  0  0  0  0  0  0  0  0999 V3000
M  V30 BEGIN CTAB
M  V30 COUNTS 17 17 0 0 1
M  V30 BEGIN ATOM
M  V30 1 O 73.465800 54.550900 41.885400 0
M  V30 2 C 74.680100 55.044800 41.353100 0
M  V30 3 C 74.700900 56.523300 41.546600 0
M  V30 4 C 73.720000 57.163000 40.574200 0
M  V30 5 F 74.072000 56.858700 39.325300 0
M  V30 6 C 74.634900 56.965500 42.999800 0
M  V30 7 O 76.072300 56.889700 43.086500 0
M  V30 8 C 76.130500 57.038700 41.652300 0
M  V30 9 H 75.545400 54.619700 41.859200 0
M  V30 10 H 74.812600 54.831600 40.304000 0
M  V30 11 H 72.712500 56.787700 40.707400 0
M  V30 12 H 73.672200 58.243300 40.674600 0
M  V30 13 H 74.266300 57.985500 43.148900 0
M  V30 14 H 74.125700 56.251000 43.656500 0
M  V30 15 H 76.868500 56.388500 41.182600 0
M  V30 16 H 76.284800 58.058800 41.322900 0
M  V30 17 R 73.335600 53.143900 41.876500 0
M  V30 END ATOM
M  V30 BEGIN BOND
M  V30 1 1 2 1
M  V30 2 1 3 2
M  V30 3 1 4 3
M  V30 4 1 5 4
M  V30 5 1 6 3
M  V30 6 1 7 6
M  V30 7 1 8 3
M  V30 8 1 8 7
M  V30 9 1 9 2
M  V30 10 1 10 2
M  V30 11 1 11 4
M  V30 12 1 12 4
M  V30 13 1 13 6
M  V30 14 1 14 6
M  V30 15 1 15 8
M  V30 16 1 16 8
M  V30 17 1 17 1
M  V30 END BOND
M  V30 END CTAB
M  END
$$$$
R-group 321 (28944-1)
     RDKit          3D

  0  0  0  0  0  0  0  0  0  0999 V3000
M  V30 BEGIN CTAB
M  V30 COUNTS 17 17 0 0 1
M  V30 BEGIN ATOM
M  V30 1 C 74.064500 55.196200 41.569300 0
M  V30 2 C 73.454200 55.896900 40.426300 0
M  V30 3 N 72.983200 56.455600 39.533000 0
M  V30 4 C 73.623600 55.908000 42.863500 0
M  V30 5 C 74.105300 57.353500 42.872800 0
M  V30 6 O 75.519900 57.254800 42.924400 0
M  V30 7 C 76.044800 56.854200 41.672400 0
M  V30 8 C 75.586200 55.413400 41.405700 0
M  V30 9 H 72.545000 55.866400 42.997700 0
M  V30 10 H 74.065100 55.411400 43.724800 0
M  V30 11 H 73.769000 57.924700 42.005000 0
M  V30 12 H 73.716800 57.896700 43.725600 0
M  V30 13 H 75.736400 57.541300 40.883400 0
M  V30 14 H 77.128300 56.907100 41.724400 0
M  V30 15 H 76.066900 54.789500 42.126100 0
M  V30 16 H 75.947700 55.099700 40.430400 0
M  V30 17 R 73.627100 53.682100 41.657600 0
M  V30 END ATOM
M  V30 BEGIN BOND
M  V30 1 1 2 1
M  V30 2 3 3 2
M  V30 3 1 4 1
M  V30 4 1 5 4
M  V30 5 1 6 5
M  V30 6 1 7 6
M  V30 7 1 8 1
M  V30 8 1 8 7
M  V30 9 1 9 4
M  V30 10 1 10 4
M  V30 11 1 11 5
M  V30 12 1 12 5
M  V30 13 1 13 7
M  V30 14 1 14 7
M  V30 15 1 15 8
M  V30 16 1 16 8
M  V30 17 1 17 1
M  V30 END BOND
M  V30 END CTAB
M  END
$$$$
R-group 322 (10985-1)
     RDKit          3D

  0  0  0  0  0  0  0  0  0  0999 V3000
M  V30 BEGIN CTAB
M  V30 COUNTS 14 14 0 0 1
M  V30 BEGIN ATOM
M  V30 1 C 74.126800 55.151500 41.850100 0 CFG=2
M  V30 2 C 73.539100 55.910400 43.035400 0
M  V30 3 O 73.671900 57.287900 42.736300 0
M  V30 4 C 74.177600 57.465000 41.423300 0
M  V30 5 C 74.040600 56.147000 40.684700 0 CFG=2
M  V30 6 O 72.873000 56.179700 39.893300 0
M  V30 7 H 75.201600 55.105500 42.044800 0
M  V30 8 H 72.481100 55.690800 43.181000 0
M  V30 9 H 74.070800 55.657400 43.952500 0
M  V30 10 H 75.244800 57.658500 41.513100 0
M  V30 11 H 73.672100 58.293400 40.926000 0
M  V30 12 H 74.880600 56.036800 40.001100 0
M  V30 13 H 72.775800 55.339700 39.470100 0
M  V30 14 R 73.621300 53.681300 41.742100 0
M  V30 END ATOM
M  V30 BEGIN BOND
M  V30 1 1 2 1
M  V30 2 1 3 2
M  V30 3 1 4 3
M  V30 4 1 5 1
M  V30 5 1 5 4
M  V30 6 1 6 5
M  V30 7 1 1 7 CFG=1
M  V30 8 1 8 2
M  V30 9 1 9 2
M  V30 10 1 10 4
M  V30 11 1 11 4
M  V30 12 1 5 12 CFG=3
M  V30 13 1 13 6
M  V30 14 1 14 1
M  V30 END BOND
M  V30 END CTAB
M  END
$$$$
R-group 323 (541-1)
     RDKit          3D

  0  0  0  0  0  0  0  0  0  0999 V3000
M  V30 BEGIN CTAB
M  V30 COUNTS 9 8 0 0 1
M  V30 BEGIN ATOM
M  V30 1 C 73.847900 57.535100 43.010200 0
M  V30 2 N 73.673600 56.094800 42.922100 0
M  V30 3 C 74.224700 55.339000 41.965100 0
M  V30 4 O 75.001800 55.812500 41.133800 0
M  V30 5 H 73.141700 57.956600 43.725200 0
M  V30 6 H 74.859500 57.766500 43.342600 0
M  V30 7 H 73.678800 58.016100 42.045800 0
M  V30 8 H 73.080000 55.643400 43.614900 0
M  V30 9 R 73.813900 53.845700 41.938500 0
M  V30 END ATOM
M  V30 BEGIN BOND
M  V30 1 1 2 1
M  V30 2 1 3 2
M  V30 3 2 4 3
M  V30 4 1 5 1
M  V30 5 1 6 1
M  V30 6 1 7 1
M  V30 7 1 8 2
M  V30 8 1 9 3
M  V30 END BOND
M  V30 END CTAB
M  END
$$$$
R-group 324 (20625-2)
     RDKit          3D

  0  0  0  0  0  0  0  0  0  0999 V3000
M  V30 BEGIN CTAB
M  V30 COUNTS 13 13 0 0 1
M  V30 BEGIN ATOM
M  V30 1 N 73.577800 54.729700 42.003700 0
M  V30 2 C 74.536100 55.361200 41.323800 0
M  V30 3 O 75.271200 54.808900 40.524700 0
M  V30 4 C 74.769800 56.752600 41.708900 0 CFG=2
M  V30 5 C 76.210500 57.225400 41.572900 0
M  V30 6 C 75.627100 56.911100 42.923600 0
M  V30 7 F 75.272400 57.971600 43.724700 0
M  V30 8 F 76.074600 55.793400 43.608400 0
M  V30 9 H 73.971800 57.473800 41.537400 0
M  V30 10 H 76.872200 56.512000 41.112400 0
M  V30 11 H 76.431500 58.257900 41.315400 0
M  V30 12 H 73.058600 55.249100 42.700200 0
M  V30 13 R 73.385100 53.288100 42.009400 0
M  V30 END ATOM
M  V30 BEGIN BOND
M  V30 1 1 2 1
M  V30 2 2 3 2
M  V30 3 1 4 2
M  V30 4 1 5 4
M  V30 5 1 6 4
M  V30 6 1 6 5
M  V30 7 1 7 6
M  V30 8 1 8 6
M  V30 9 1 4 9 CFG=1
M  V30 10 1 10 5
M  V30 11 1 11 5
M  V30 12 1 12 1
M  V30 13 1 13 1
M  V30 END BOND
M  V30 END CTAB
M  END
$$$$
R-group 325 (25465-4)
     RDKit          3D

  0  0  0  0  0  0  0  0  0  0999 V3000
M  V30 BEGIN CTAB
M  V30 COUNTS 15 15 0 0 1
M  V30 BEGIN ATOM
M  V30 1 C 73.644200 54.928800 42.045600 0 CFG=2
M  V30 2 O 73.329300 55.691500 40.887500 0
M  V30 3 C 73.695300 57.036100 41.161900 0
M  V30 4 C 75.041700 56.896300 41.884100 0 CFG=2
M  V30 5 O 76.071400 57.078400 40.933400 0
M  V30 6 C 75.056800 55.432600 42.344500 0 CFG=1
M  V30 7 O 75.272600 55.258000 43.724900 0
M  V30 8 H 72.967800 55.250000 42.840900 0
M  V30 9 H 73.706200 57.644900 40.257900 0
M  V30 10 H 72.952700 57.471800 41.835500 0
M  V30 11 H 75.134000 57.650800 42.678500 0
M  V30 12 H 75.791400 54.863600 41.773500 0
M  V30 13 H 76.892100 56.825700 41.333700 0
M  V30 14 H 74.428800 55.268000 44.159000 0
M  V30 15 R 73.476300 53.396300 41.847100 0
M  V30 END ATOM
M  V30 BEGIN BOND
M  V30 1 1 2 1
M  V30 2 1 3 2
M  V30 3 1 4 3
M  V30 4 1 5 4
M  V30 5 1 6 1
M  V30 6 1 6 4
M  V30 7 1 7 6
M  V30 8 1 1 8 CFG=1
M  V30 9 1 9 3
M  V30 10 1 10 3
M  V30 11 1 4 11 CFG=1
M  V30 12 1 6 12 CFG=3
M  V30 13 1 13 5
M  V30 14 1 14 7
M  V30 15 1 15 1
M  V30 END BOND
M  V30 END CTAB
M  END
$$$$
R-group 326 (3358-1)
     RDKit          3D

  0  0  0  0  0  0  0  0  0  0999 V3000
M  V30 BEGIN CTAB
M  V30 COUNTS 18 17 0 0 1
M  V30 BEGIN ATOM
M  V30 1 O 73.796400 54.862100 42.170800 0
M  V30 2 C 75.099500 55.393900 41.961700 0
M  V30 3 C 74.946900 56.872300 41.595600 0
M  V30 4 C 74.337400 57.572900 42.823100 0
M  V30 5 C 74.002300 57.025400 40.373700 0
M  V30 6 C 76.358700 57.416800 41.257200 0
M  V30 7 H 75.661800 54.876500 41.193200 0
M  V30 8 H 75.672400 55.285000 42.883500 0
M  V30 9 H 73.814900 58.464300 42.520400 0
M  V30 10 H 75.091700 57.825400 43.570400 0
M  V30 11 H 73.581600 56.966500 43.324300 0
M  V30 12 H 74.476500 56.675700 39.457100 0
M  V30 13 H 73.084400 56.453100 40.496300 0
M  V30 14 H 73.672300 58.053600 40.215400 0
M  V30 15 H 76.816600 56.829900 40.460300 0
M  V30 16 H 76.394900 58.451700 40.925200 0
M  V30 17 H 77.017400 57.343300 42.118900 0
M  V30 18 R 73.590100 53.477200 41.962200 0
M  V30 END ATOM
M  V30 BEGIN BOND
M  V30 1 1 2 1
M  V30 2 1 3 2
M  V30 3 1 4 3
M  V30 4 1 5 3
M  V30 5 1 6 3
M  V30 6 1 7 2
M  V30 7 1 8 2
M  V30 8 1 9 4
M  V30 9 1 10 4
M  V30 10 1 11 4
M  V30 11 1 12 5
M  V30 12 1 13 5
M  V30 13 1 14 5
M  V30 14 1 15 6
M  V30 15 1 16 6
M  V30 16 1 17 6
M  V30 17 1 18 1
M  V30 END BOND
M  V30 END CTAB
M  END
$$$$
R-group 327 (25215-1)
     RDKit          3D

  0  0  0  0  0  0  0  0  0  0999 V3000
M  V30 BEGIN CTAB
M  V30 COUNTS 16 16 0 0 1
M  V30 BEGIN ATOM
M  V30 1 C 73.937200 55.282600 42.530600 0 CFG=1
M  V30 2 C 75.364300 55.683700 42.910200 0
M  V30 3 C 75.338700 57.165600 42.660200 0
M  V30 4 C 74.536900 57.228100 41.363900 0 CFG=1
M  V30 5 C 75.435400 57.129400 40.124700 0
M  V30 6 O 73.675000 56.091800 41.386100 0
M  V30 7 H 73.274300 55.653100 43.319000 0
M  V30 8 H 75.643200 55.434800 43.933100 0
M  V30 9 H 76.072200 55.235800 42.218700 0
M  V30 10 H 74.795200 57.663400 43.460500 0
M  V30 11 H 76.334100 57.607800 42.590200 0
M  V30 12 H 73.926800 58.129000 41.330400 0
M  V30 13 H 76.150800 57.948900 40.088100 0
M  V30 14 H 76.018900 56.212000 40.125400 0
M  V30 15 H 74.835800 57.146300 39.214800 0
M  V30 16 R 73.655200 53.763700 42.281700 0
M  V30 END ATOM
M  V30 BEGIN BOND
M  V30 1 1 2 1
M  V30 2 1 3 2
M  V30 3 1 4 3
M  V30 4 1 5 4
M  V30 5 1 6 1
M  V30 6 1 6 4
M  V30 7 1 1 7 CFG=1
M  V30 8 1 8 2
M  V30 9 1 9 2
M  V30 10 1 10 3
M  V30 11 1 11 3
M  V30 12 1 4 12 CFG=3
M  V30 13 1 13 5
M  V30 14 1 14 5
M  V30 15 1 15 5
M  V30 16 1 16 1
M  V30 END BOND
M  V30 END CTAB
M  END
$$$$
R-group 328 (9967-1)
     RDKit          3D

  0  0  0  0  0  0  0  0  0  0999 V3000
M  V30 BEGIN CTAB
M  V30 COUNTS 11 11 0 0 1
M  V30 BEGIN ATOM
M  V30 1 C 73.720900 54.461900 41.556600 0
M  V30 2 C 74.068600 55.336400 42.525000 0
M  V30 3 C 73.861500 56.560400 41.894500 0
M  V30 4 N 73.669900 57.686100 42.629300 0
M  V30 5 C 73.675200 56.410700 40.558200 0
M  V30 6 O 73.529100 55.084800 40.341100 0
M  V30 7 H 74.220500 55.130700 43.570200 0
M  V30 8 H 73.932700 57.613300 43.605200 0
M  V30 9 H 73.960300 58.548200 42.210200 0
M  V30 10 H 73.455600 57.065500 39.727000 0
M  V30 11 R 73.490100 53.014700 41.638400 0
M  V30 END ATOM
M  V30 BEGIN BOND
M  V30 1 2 2 1
M  V30 2 1 3 2
M  V30 3 1 4 3
M  V30 4 2 5 3
M  V30 5 1 6 1
M  V30 6 1 6 5
M  V30 7 1 7 2
M  V30 8 1 8 4
M  V30 9 1 9 4
M  V30 10 1 10 5
M  V30 11 1 11 1
M  V30 END BOND
M  V30 END CTAB
M  END
$$$$
R-group 329 (28901-1)
     RDKit          3D

  0  0  0  0  0  0  0  0  0  0999 V3000
M  V30 BEGIN CTAB
M  V30 COUNTS 19 23 0 0 1
M  V30 BEGIN ATOM
M  V30 1 C 74.292800 55.110100 41.727400 0 CFG=2
M  V30 2 C 74.604200 56.217500 42.973700 0 CFG=1
M  V30 3 C 75.460900 56.642400 42.286100 0 CFG=1
M  V30 4 C 75.112200 55.576200 40.995700 0 CFG=2
M  V30 5 C 73.272300 56.052500 41.114800 0 CFG=2
M  V30 6 C 74.129400 56.546700 40.492000 0 CFG=1
M  V30 7 C 74.532200 57.655400 41.722200 0 CFG=2
M  V30 8 C 73.644400 57.173200 42.331900 0 CFG=2
M  V30 9 C 72.729300 57.971100 43.301900 0
M  V30 10 F 72.072300 58.858000 42.524700 0
M  V30 11 H 75.272200 55.948600 43.797600 0
M  V30 12 H 76.400100 57.068500 42.708600 0
M  V30 13 H 75.672500 54.659100 40.837100 0
M  V30 14 H 72.472300 56.194300 40.381200 0
M  V30 15 H 74.051900 56.624000 39.382700 0
M  V30 16 H 74.080700 58.646400 41.724300 0
M  V30 17 H 72.072300 57.327700 43.876300 0
M  V30 18 H 73.272300 58.458000 44.090200 0
M  V30 19 R 73.735600 53.631600 41.793600 0
M  V30 END ATOM
M  V30 BEGIN BOND
M  V30 1 1 2 1
M  V30 2 1 3 2
M  V30 3 1 4 1
M  V30 4 1 4 3
M  V30 5 1 5 4
M  V30 6 1 6 1
M  V30 7 1 6 5
M  V30 8 1 7 2
M  V30 9 1 7 6
M  V30 10 1 8 3
M  V30 11 1 8 5
M  V30 12 1 8 7
M  V30 13 1 8 9 CFG=1
M  V30 14 1 10 9
M  V30 15 1 2 11 CFG=1
M  V30 16 1 3 12 CFG=1
M  V30 17 1 4 13 CFG=3
M  V30 18 1 5 14 CFG=3
M  V30 19 1 6 15 CFG=3
M  V30 20 1 7 16 CFG=3
M  V30 21 1 17 9
M  V30 22 1 18 9
M  V30 23 1 1 19 CFG=1
M  V30 END BOND
M  V30 END CTAB
M  END
$$$$
R-group 330 (9966-1)
     RDKit          3D

  0  0  0  0  0  0  0  0  0  0999 V3000
M  V30 BEGIN CTAB
M  V30 COUNTS 9 9 0 0 1
M  V30 BEGIN ATOM
M  V30 1 C 74.046800 55.022300 41.785100 0
M  V30 2 O 74.870900 55.503100 42.759500 0
M  V30 3 C 74.933200 56.849600 42.589200 0
M  V30 4 C 74.102600 57.256300 41.591000 0
M  V30 5 C 73.672300 56.061400 40.982200 0
M  V30 6 F 72.876700 55.990400 39.886500 0
M  V30 7 H 75.536300 57.371500 43.319300 0
M  V30 8 H 73.885600 58.276500 41.324800 0
M  V30 9 R 73.700200 53.565600 41.834700 0
M  V30 END ATOM
M  V30 BEGIN BOND
M  V30 1 1 2 1
M  V30 2 1 3 2
M  V30 3 2 4 3
M  V30 4 2 5 1
M  V30 5 1 5 4
M  V30 6 1 6 5
M  V30 7 1 7 3
M  V30 8 1 8 4
M  V30 9 1 9 1
M  V30 END BOND
M  V30 END CTAB
M  END
$$$$
R-group 331 (1226-2)
     RDKit          3D

  0  0  0  0  0  0  0  0  0  0999 V3000
M  V30 BEGIN CTAB
M  V30 COUNTS 13 13 0 0 1
M  V30 BEGIN ATOM
M  V30 1 C 73.955400 55.278500 42.074500 0 CFG=2
M  V30 2 C 73.296900 56.282200 41.121300 0
M  V30 3 C 74.443800 56.740000 40.241000 0
M  V30 4 O 75.499500 56.854000 41.176600 0
M  V30 5 C 75.438300 55.706700 42.016400 0
M  V30 6 H 73.597800 55.503800 43.080300 0
M  V30 7 H 72.472300 55.910000 40.523900 0
M  V30 8 H 72.927500 57.138800 41.688000 0
M  V30 9 H 74.682300 56.008500 39.474100 0
M  V30 10 H 74.216100 57.658200 39.716900 0
M  V30 11 H 75.837500 55.942000 43.003500 0
M  V30 12 H 76.070200 54.938800 41.586200 0
M  V30 13 R 73.652500 53.759100 41.818300 0
M  V30 END ATOM
M  V30 BEGIN BOND
M  V30 1 1 2 1
M  V30 2 1 3 2
M  V30 3 1 4 3
M  V30 4 1 5 1
M  V30 5 1 5 4
M  V30 6 1 1 6 CFG=1
M  V30 7 1 7 2
M  V30 8 1 8 2
M  V30 9 1 9 3
M  V30 10 1 10 3
M  V30 11 1 11 5
M  V30 12 1 12 5
M  V30 13 1 13 1
M  V30 END BOND
M  V30 END CTAB
M  END
$$$$
R-group 332 (22412-2)
     RDKit          3D

  0  0  0  0  0  0  0  0  0  0999 V3000
M  V30 BEGIN CTAB
M  V30 COUNTS 16 16 0 0 1
M  V30 BEGIN ATOM
M  V30 1 C 74.078600 55.317700 41.741900 0 CFG=1
M  V30 2 C 75.589200 55.639100 41.684100 0
M  V30 3 C 73.435700 56.183700 42.826700 0
M  V30 4 C 73.266300 57.546200 42.161600 0
M  V30 5 C 73.300400 57.233800 40.662500 0
M  V30 6 O 73.473900 55.834300 40.558000 0
M  V30 7 H 76.072200 55.263500 42.578100 0
M  V30 8 H 76.072200 55.231000 40.803800 0
M  V30 9 H 75.793200 56.709400 41.660400 0
M  V30 10 H 72.472100 55.787500 43.125800 0
M  V30 11 H 74.042700 56.208500 43.724700 0
M  V30 12 H 72.353700 58.057900 42.456400 0
M  V30 13 H 74.072300 58.219300 42.430400 0
M  V30 14 H 72.403400 57.563100 40.135500 0
M  V30 15 H 74.169200 57.658000 40.171100 0
M  V30 16 R 73.713700 53.791000 41.866700 0
M  V30 END ATOM
M  V30 BEGIN BOND
M  V30 1 1 2 1
M  V30 2 1 3 1
M  V30 3 1 4 3
M  V30 4 1 5 4
M  V30 5 1 6 1
M  V30 6 1 6 5
M  V30 7 1 7 2
M  V30 8 1 8 2
M  V30 9 1 9 2
M  V30 10 1 10 3
M  V30 11 1 11 3
M  V30 12 1 12 4
M  V30 13 1 13 4
M  V30 14 1 14 5
M  V30 15 1 15 5
M  V30 16 1 1 16 CFG=1
M  V30 END BOND
M  V30 END CTAB
M  END
$$$$
R-group 333 (2387-1)
     RDKit          3D

  0  0  0  0  0  0  0  0  0  0999 V3000
M  V30 BEGIN CTAB
M  V30 COUNTS 11 11 0 0 1
M  V30 BEGIN ATOM
M  V30 1 C 73.974100 55.037500 41.809200 0
M  V30 2 C 74.667900 55.701500 42.783200 0
M  V30 3 O 74.737100 57.016900 42.524000 0
M  V30 4 N 74.073400 57.257400 41.325700 0
M  V30 5 C 73.672200 56.090100 40.878100 0
M  V30 6 C 72.925500 56.103000 39.567400 0
M  V30 7 H 75.120300 55.407700 43.717200 0
M  V30 8 H 73.379200 55.433300 38.836200 0
M  V30 9 H 71.880200 55.821100 39.706700 0
M  V30 10 H 72.932100 57.097700 39.114100 0
M  V30 11 R 73.592300 53.564700 41.812800 0
M  V30 END ATOM
M  V30 BEGIN BOND
M  V30 1 2 2 1
M  V30 2 1 3 2
M  V30 3 1 4 3
M  V30 4 1 5 1
M  V30 5 2 5 4
M  V30 6 1 6 5
M  V30 7 1 7 2
M  V30 8 1 8 6
M  V30 9 1 9 6
M  V30 10 1 10 6
M  V30 11 1 11 1
M  V30 END BOND
M  V30 END CTAB
M  END
$$$$
R-group 334 (663-1)
     RDKit          3D

  0  0  0  0  0  0  0  0  0  0999 V3000
M  V30 BEGIN CTAB
M  V30 COUNTS 9 9 0 0 1
M  V30 BEGIN ATOM
M  V30 1 C 74.072100 54.852400 42.061800 0
M  V30 2 C 74.872200 55.544200 42.924700 0
M  V30 3 C 74.987900 56.856600 42.411100 0
M  V30 4 C 74.248400 56.863800 41.264700 0
M  V30 5 O 73.672500 55.663300 41.047000 0
M  V30 6 H 75.335100 55.155700 43.818600 0
M  V30 7 H 75.562500 57.657900 42.838700 0
M  V30 8 H 74.026800 57.616000 40.522300 0
M  V30 9 R 73.599600 53.436000 42.000000 0
M  V30 END ATOM
M  V30 BEGIN BOND
M  V30 1 2 2 1
M  V30 2 1 3 2
M  V30 3 2 4 3
M  V30 4 1 5 1
M  V30 5 1 5 4
M  V30 6 1 6 2
M  V30 7 1 7 3
M  V30 8 1 8 4
M  V30 9 1 9 1
M  V30 END BOND
M  V30 END CTAB
M  END
$$$$
R-group 335 (29059-4)
     RDKit          3D

  0  0  0  0  0  0  0  0  0  0999 V3000
M  V30 BEGIN CTAB
M  V30 COUNTS 32 33 0 0 1
M  V30 BEGIN ATOM
M  V30 1 C 73.763800 54.874500 41.321600 0 CFG=2
M  V30 2 C 73.412000 55.734500 42.537100 0
M  V30 3 C 73.279300 57.158400 42.011900 0
M  V30 4 C 73.008200 57.039300 40.505000 0
M  V30 5 C 73.038400 55.541700 40.111000 0 CFG=2
M  V30 6 O 71.742900 54.977900 39.838200 0
M  V30 7 C 71.049400 55.492200 38.720800 0
M  V30 8 C 69.534000 55.610400 38.938700 0
M  V30 9 C 68.800600 56.068500 37.667400 0
M  V30 10 C 68.357600 54.789800 36.936200 0
M  V30 11 C 68.574200 53.629500 37.916200 0
M  V30 12 C 68.867100 54.274900 39.272400 0
M  V30 13 H 74.827100 55.027900 41.154100 0
M  V30 14 H 72.471100 55.401000 42.961200 0
M  V30 15 H 74.159500 55.657300 43.326400 0
M  V30 16 H 74.215200 57.700100 42.176800 0
M  V30 17 H 72.478000 57.703800 42.519900 0
M  V30 18 H 73.773800 57.585700 39.951700 0
M  V30 19 H 72.072400 57.532500 40.260200 0
M  V30 20 H 73.638500 55.423500 39.209200 0
M  V30 21 H 71.402500 56.504900 38.524300 0
M  V30 22 H 71.258000 54.850200 37.861700 0
M  V30 23 H 69.371400 56.353100 39.724600 0
M  V30 24 H 67.915600 56.642900 37.950800 0
M  V30 25 H 69.414000 56.716300 37.037000 0
M  V30 26 H 67.313700 54.868100 36.638600 0
M  V30 27 H 68.944000 54.636900 36.030000 0
M  V30 28 H 67.714100 52.957800 37.954600 0
M  V30 29 H 69.434800 53.034000 37.600200 0
M  V30 30 H 69.473000 53.630400 39.919300 0
M  V30 31 H 67.925900 54.453000 39.793200 0
M  V30 32 R 73.533900 53.353500 41.572800 0
M  V30 END ATOM
M  V30 BEGIN BOND
M  V30 1 1 2 1
M  V30 2 1 3 2
M  V30 3 1 4 3
M  V30 4 1 5 1
M  V30 5 1 5 4
M  V30 6 1 6 5
M  V30 7 1 7 6
M  V30 8 1 8 7
M  V30 9 1 9 8
M  V30 10 1 10 9
M  V30 11 1 11 10
M  V30 12 1 12 8
M  V30 13 1 12 11
M  V30 14 1 1 13 CFG=3
M  V30 15 1 14 2
M  V30 16 1 15 2
M  V30 17 1 16 3
M  V30 18 1 17 3
M  V30 19 1 18 4
M  V30 20 1 19 4
M  V30 21 1 5 20 CFG=3
M  V30 22 1 21 7
M  V30 23 1 22 7
M  V30 24 1 23 8
M  V30 25 1 24 9
M  V30 26 1 25 9
M  V30 27 1 26 10
M  V30 28 1 27 10
M  V30 29 1 28 11
M  V30 30 1 29 11
M  V30 31 1 30 12
M  V30 32 1 31 12
M  V30 33 1 32 1
M  V30 END BOND
M  V30 END CTAB
M  END
$$$$
R-group 336 (2427-1)
     RDKit          3D

  0  0  0  0  0  0  0  0  0  0999 V3000
M  V30 BEGIN CTAB
M  V30 COUNTS 10 10 0 0 1
M  V30 BEGIN ATOM
M  V30 1 C 73.752000 54.813600 41.459100 0
M  V30 2 C 73.482100 55.469800 40.229400 0
M  V30 3 C 73.441900 56.868900 40.252600 0
M  V30 4 C 73.671300 57.492000 41.496900 0
M  V30 5 N 74.053500 56.825100 42.586200 0
M  V30 6 N 74.081900 55.498800 42.569200 0
M  V30 7 H 73.241700 54.965100 39.307900 0
M  V30 8 H 73.209200 57.439300 39.361900 0
M  V30 9 H 73.609100 58.559400 41.654300 0
M  V30 10 R 73.565900 53.316600 41.665200 0
M  V30 END ATOM
M  V30 BEGIN BOND
M  V30 1 2 2 1
M  V30 2 1 3 2
M  V30 3 2 4 3
M  V30 4 1 5 4
M  V30 5 1 6 1
M  V30 6 2 6 5
M  V30 7 1 7 2
M  V30 8 1 8 3
M  V30 9 1 9 4
M  V30 10 1 10 1
M  V30 END BOND
M  V30 END CTAB
M  END
$$$$
R-group 337 (26510-1)
     RDKit          3D

  0  0  0  0  0  0  0  0  0  0999 V3000
M  V30 BEGIN CTAB
M  V30 COUNTS 12 12 0 0 1
M  V30 BEGIN ATOM
M  V30 1 C 74.312700 54.965200 41.813000 0
M  V30 2 N 73.672200 55.834000 42.602800 0
M  V30 3 C 74.071200 57.021400 42.244600 0
M  V30 4 O 73.491600 58.058000 42.524800 0
M  V30 5 N 75.193800 56.793000 41.542200 0
M  V30 6 C 76.425800 57.587500 41.558800 0
M  V30 7 N 75.272000 55.499000 41.147400 0
M  V30 8 H 76.625900 57.970000 42.562300 0
M  V30 9 H 77.272000 56.955200 41.333400 0
M  V30 10 H 76.471500 58.404000 40.838200 0
M  V30 11 H 72.880500 55.614100 43.193300 0
M  V30 12 R 73.784600 53.550400 41.849100 0
M  V30 END ATOM
M  V30 BEGIN BOND
M  V30 1 1 2 1
M  V30 2 1 3 2
M  V30 3 2 4 3
M  V30 4 1 5 3
M  V30 5 1 6 5
M  V30 6 2 7 1
M  V30 7 1 7 5
M  V30 8 1 8 6
M  V30 9 1 9 6
M  V30 10 1 10 6
M  V30 11 1 11 2
M  V30 12 1 12 1
M  V30 END BOND
M  V30 END CTAB
M  END
$$$$
R-group 338 (29406-1)
     RDKit          3D

  0  0  0  0  0  0  0  0  0  0999 V3000
M  V30 BEGIN CTAB
M  V30 COUNTS 14 14 0 0 1
M  V30 BEGIN ATOM
M  V30 1 C 73.678600 54.567700 41.567300 0
M  V30 2 C 73.271600 55.316300 40.438200 0
M  V30 3 C 73.622900 56.676100 40.373800 0
M  V30 4 N 74.362100 57.257900 41.323900 0
M  V30 5 C 74.844200 56.531400 42.324100 0
M  V30 6 C 75.878600 57.176500 43.196300 0
M  V30 7 F 76.389100 56.360300 44.122700 0
M  V30 8 F 76.872100 57.658500 42.439500 0
M  V30 9 C 74.481100 55.206400 42.525400 0
M  V30 10 H 72.673400 54.915100 39.632900 0
M  V30 11 H 73.296800 57.302600 39.562900 0
M  V30 12 H 75.443900 58.026600 43.725800 0
M  V30 13 H 74.887100 54.731900 43.398500 0
M  V30 14 R 73.374100 53.089500 41.708400 0
M  V30 END ATOM
M  V30 BEGIN BOND
M  V30 1 2 2 1
M  V30 2 1 3 2
M  V30 3 2 4 3
M  V30 4 1 5 4
M  V30 5 1 6 5
M  V30 6 1 7 6
M  V30 7 1 8 6
M  V30 8 1 9 1
M  V30 9 2 9 5
M  V30 10 1 10 2
M  V30 11 1 11 3
M  V30 12 1 12 6
M  V30 13 1 13 9
M  V30 14 1 14 1
M  V30 END BOND
M  V30 END CTAB
M  END
$$$$
R-group 339 (6634-2)
     RDKit          3D

  0  0  0  0  0  0  0  0  0  0999 V3000
M  V30 BEGIN CTAB
M  V30 COUNTS 16 15 0 0 1
M  V30 BEGIN ATOM
M  V30 1 C 73.757100 54.830900 41.407800 0
M  V30 2 O 74.033900 55.327000 40.318400 0
M  V30 3 N 73.673600 55.537800 42.525500 0
M  V30 4 C 74.175200 56.858400 42.831600 0 CFG=1
M  V30 5 C 75.627500 56.718900 43.320000 0
M  V30 6 C 74.066200 57.845500 41.674600 0
M  V30 7 O 72.872800 57.841600 40.925200 0
M  V30 8 H 73.552800 57.232100 43.650900 0
M  V30 9 H 76.005000 57.658800 43.718100 0
M  V30 10 H 75.710800 55.972500 44.106600 0
M  V30 11 H 76.300800 56.413500 42.520600 0
M  V30 12 H 74.072100 58.820000 42.123500 0
M  V30 13 H 74.900400 57.654700 41.003200 0
M  V30 14 H 73.307000 55.051300 43.338800 0
M  V30 15 H 72.831400 56.983000 40.499600 0
M  V30 16 R 73.517900 53.339900 41.620500 0
M  V30 END ATOM
M  V30 BEGIN BOND
M  V30 1 2 2 1
M  V30 2 1 3 1
M  V30 3 1 4 3
M  V30 4 1 5 4
M  V30 5 1 6 4
M  V30 6 1 7 6
M  V30 7 1 4 8 CFG=1
M  V30 8 1 9 5
M  V30 9 1 10 5
M  V30 10 1 11 5
M  V30 11 1 12 6
M  V30 12 1 13 6
M  V30 13 1 14 3
M  V30 14 1 15 7
M  V30 15 1 16 1
M  V30 END BOND
M  V30 END CTAB
M  END
$$$$
R-group 340 (42989-4)
     RDKit          3D

  0  0  0  0  0  0  0  0  0  0999 V3000
M  V30 BEGIN CTAB
M  V30 COUNTS 15 15 0 0 1
M  V30 BEGIN ATOM
M  V30 1 C 74.073100 54.931300 41.478800 0
M  V30 2 C 73.367000 56.045400 42.222300 0 CFG=1
M  V30 3 C 74.190300 57.170300 42.789900 0
M  V30 4 C 73.272300 55.948500 40.696800 0 CFG=2
M  V30 5 C 72.011000 55.609300 39.914000 0
M  V30 6 H 75.150700 55.046500 41.364100 0
M  V30 7 H 72.595000 55.682900 42.912200 0
M  V30 8 H 74.580400 57.767900 41.966800 0
M  V30 9 H 73.585200 57.804400 43.443900 0
M  V30 10 H 75.048600 56.769900 43.327200 0
M  V30 11 H 73.879400 56.667800 40.148500 0
M  V30 12 H 71.402300 54.859200 40.434900 0
M  V30 13 H 71.419200 56.505200 39.728900 0
M  V30 14 H 72.285700 55.222400 38.932300 0
M  V30 15 R 73.646500 53.478300 41.662100 0
M  V30 END ATOM
M  V30 BEGIN BOND
M  V30 1 1 2 1
M  V30 2 1 3 2
M  V30 3 1 4 1
M  V30 4 1 4 2
M  V30 5 1 5 4
M  V30 6 1 6 1
M  V30 7 1 2 7 CFG=1
M  V30 8 1 8 3
M  V30 9 1 9 3
M  V30 10 1 10 3
M  V30 11 1 4 11 CFG=3
M  V30 12 1 12 5
M  V30 13 1 13 5
M  V30 14 1 14 5
M  V30 15 1 15 1
M  V30 END BOND
M  V30 END CTAB
M  END
$$$$
R-group 341 (2445-3)
     RDKit          3D

  0  0  0  0  0  0  0  0  0  0999 V3000
M  V30 BEGIN CTAB
M  V30 COUNTS 19 19 0 0 1
M  V30 BEGIN ATOM
M  V30 1 C 74.101600 54.912200 41.978500 0 CFG=2
M  V30 2 C 73.616900 55.751600 43.190900 0
M  V30 3 C 73.907200 57.253100 43.066200 0
M  V30 4 C 73.443900 57.806300 41.727300 0
M  V30 5 C 74.057900 56.997500 40.584400 0 CFG=2
M  V30 6 O 73.491200 57.257900 39.346100 0
M  V30 7 C 73.622400 55.565100 40.688700 0
M  V30 8 H 75.192000 54.960100 41.954700 0
M  V30 9 H 72.538900 55.654100 43.319800 0
M  V30 10 H 74.073600 55.383100 44.106500 0
M  V30 11 H 74.973700 57.440600 43.204300 0
M  V30 12 H 73.374500 57.798600 43.843400 0
M  V30 13 H 73.672700 58.857400 41.700500 0
M  V30 14 H 72.365600 57.755600 41.664100 0
M  V30 15 H 75.144800 57.086800 40.543200 0
M  V30 16 H 74.021600 55.078800 39.808600 0
M  V30 17 H 72.538900 55.483500 40.589300 0
M  V30 18 H 74.019200 57.857100 38.827100 0
M  V30 19 R 73.678500 53.419700 42.044600 0
M  V30 END ATOM
M  V30 BEGIN BOND
M  V30 1 1 2 1
M  V30 2 1 3 2
M  V30 3 1 4 3
M  V30 4 1 5 4
M  V30 5 1 6 5
M  V30 6 1 7 1
M  V30 7 1 7 5
M  V30 8 1 1 8 CFG=3
M  V30 9 1 9 2
M  V30 10 1 10 2
M  V30 11 1 11 3
M  V30 12 1 12 3
M  V30 13 1 13 4
M  V30 14 1 14 4
M  V30 15 1 5 15 CFG=3
M  V30 16 1 16 7
M  V30 17 1 17 7
M  V30 18 1 18 6
M  V30 19 1 19 1
M  V30 END BOND
M  V30 END CTAB
M  END
$$$$
R-group 342 (43699-2)
     RDKit          3D

  0  0  0  0  0  0  0  0  0  0999 V3000
M  V30 BEGIN CTAB
M  V30 COUNTS 20 21 0 0 1
M  V30 BEGIN ATOM
M  V30 1 O 73.378600 54.589800 42.124800 0
M  V30 2 C 74.564300 55.236600 41.706900 0 CFG=1
M  V30 3 C 74.478900 55.695300 40.258400 0
M  V30 4 C 74.716000 57.185900 40.325000 0 CFG=2
M  V30 5 C 76.184400 57.425900 40.745200 0
M  V30 6 C 76.179800 57.012400 42.229600 0
M  V30 7 C 74.724600 56.564300 42.442100 0 CFG=1
M  V30 8 C 73.928100 57.532700 41.582200 0
M  V30 9 H 75.458100 54.639800 41.864100 0
M  V30 10 H 75.277700 55.225700 39.724700 0
M  V30 11 H 73.517200 55.460200 39.800700 0
M  V30 12 H 74.408400 57.658200 39.400200 0
M  V30 13 H 76.877600 56.844700 40.136000 0
M  V30 14 H 76.473600 58.459900 40.647400 0
M  V30 15 H 76.472300 57.827000 42.893100 0
M  V30 16 H 76.868600 56.198100 42.415800 0
M  V30 17 H 74.401100 56.508000 43.471200 0
M  V30 18 H 72.873300 57.284800 41.512900 0
M  V30 19 H 74.025600 58.557800 41.907600 0
M  V30 20 R 73.330000 53.176200 41.978700 0
M  V30 END ATOM
M  V30 BEGIN BOND
M  V30 1 1 2 1
M  V30 2 1 3 2
M  V30 3 1 4 3
M  V30 4 1 5 4
M  V30 5 1 6 5
M  V30 6 1 7 2
M  V30 7 1 7 6
M  V30 8 1 8 4
M  V30 9 1 8 7
M  V30 10 1 2 9 CFG=3
M  V30 11 1 10 3
M  V30 12 1 11 3
M  V30 13 1 4 12 CFG=3
M  V30 14 1 13 5
M  V30 15 1 14 5
M  V30 16 1 15 6
M  V30 17 1 16 6
M  V30 18 1 7 17 CFG=1
M  V30 19 1 18 8
M  V30 20 1 19 8
M  V30 21 1 20 1
M  V30 END BOND
M  V30 END CTAB
M  END
$$$$
R-group 343 (41520-3)
     RDKit          3D

  0  0  0  0  0  0  0  0  0  0999 V3000
M  V30 BEGIN CTAB
M  V30 COUNTS 19 19 0 0 1
M  V30 BEGIN ATOM
M  V30 1 C 72.916000 54.447700 41.923900 0
M  V30 2 C 73.995200 55.529500 41.694300 0 CFG=1
M  V30 3 C 73.522000 56.682700 40.790000 0
M  V30 4 C 73.101800 57.822100 41.722300 0
M  V30 5 C 73.386500 57.353600 43.141700 0
M  V30 6 C 74.365200 56.191100 43.014500 0 CFG=2
M  V30 7 O 75.672200 56.696400 42.922600 0
M  V30 8 H 72.073500 54.602200 41.256000 0
M  V30 9 H 72.493500 54.485400 42.924600 0
M  V30 10 H 74.883400 55.069300 41.257300 0
M  V30 11 H 74.346300 57.015200 40.159000 0
M  V30 12 H 72.720600 56.392600 40.111400 0
M  V30 13 H 72.073300 58.118000 41.587200 0
M  V30 14 H 73.672200 58.717300 41.517600 0
M  V30 15 H 72.473000 57.017600 43.631300 0
M  V30 16 H 73.802000 58.164800 43.724700 0
M  V30 17 H 74.318200 55.506200 43.857800 0
M  V30 18 H 75.708600 57.293600 42.192200 0
M  V30 19 R 73.380900 53.040500 41.581800 0
M  V30 END ATOM
M  V30 BEGIN BOND
M  V30 1 1 2 1
M  V30 2 1 3 2
M  V30 3 1 4 3
M  V30 4 1 5 4
M  V30 5 1 6 2
M  V30 6 1 6 5
M  V30 7 1 7 6
M  V30 8 1 8 1
M  V30 9 1 9 1
M  V30 10 1 2 10 CFG=3
M  V30 11 1 11 3
M  V30 12 1 12 3
M  V30 13 1 13 4
M  V30 14 1 14 4
M  V30 15 1 15 5
M  V30 16 1 16 5
M  V30 17 1 6 17 CFG=1
M  V30 18 1 18 7
M  V30 19 1 19 1
M  V30 END BOND
M  V30 END CTAB
M  END
$$$$
R-group 344 (13888-4)
     RDKit          3D

  0  0  0  0  0  0  0  0  0  0999 V3000
M  V30 BEGIN CTAB
M  V30 COUNTS 24 24 0 0 1
M  V30 BEGIN ATOM
M  V30 1 C 74.061500 54.757100 41.779400 0
M  V30 2 C 73.532400 55.476800 40.533900 0
M  V30 3 C 74.028500 56.911400 40.436900 0 CFG=1
M  V30 4 C 73.448200 57.437800 39.154400 0
M  V30 5 C 73.622800 57.690200 41.690900 0
M  V30 6 C 74.176400 57.014600 42.930500 0 CFG=2
M  V30 7 C 75.715700 57.048800 43.106900 0
M  V30 8 C 73.671300 55.581200 43.017400 0
M  V30 9 H 75.144900 54.760600 41.690400 0
M  V30 10 H 73.831500 54.997800 39.611000 0
M  V30 11 H 72.444600 55.449700 40.524700 0
M  V30 12 H 75.112700 56.918800 40.337500 0
M  V30 13 H 72.375900 57.256600 39.110200 0
M  V30 14 H 73.670900 58.491900 38.996100 0
M  V30 15 H 73.885300 56.857800 38.338100 0
M  V30 16 H 72.532900 57.732200 41.753600 0
M  V30 17 H 73.942100 58.726100 41.722200 0
M  V30 18 H 73.729400 57.586400 43.724700 0
M  V30 19 H 76.255000 56.688600 42.230800 0
M  V30 20 H 76.087300 58.031500 43.324700 0
M  V30 21 H 76.040600 56.430600 43.943200 0
M  V30 22 H 72.586700 55.590400 43.135100 0
M  V30 23 H 74.085900 55.144100 43.918500 0
M  V30 24 R 73.622800 53.275400 41.889100 0
M  V30 END ATOM
M  V30 BEGIN BOND
M  V30 1 1 2 1
M  V30 2 1 3 2
M  V30 3 1 4 3
M  V30 4 1 5 3
M  V30 5 1 6 5
M  V30 6 1 7 6
M  V30 7 1 8 1
M  V30 8 1 8 6
M  V30 9 1 9 1
M  V30 10 1 10 2
M  V30 11 1 11 2
M  V30 12 1 3 12 CFG=3
M  V30 13 1 13 4
M  V30 14 1 14 4
M  V30 15 1 15 4
M  V30 16 1 16 5
M  V30 17 1 17 5
M  V30 18 1 6 18 CFG=1
M  V30 19 1 19 7
M  V30 20 1 20 7
M  V30 21 1 21 7
M  V30 22 1 22 8
M  V30 23 1 23 8
M  V30 24 1 24 1
M  V30 END BOND
M  V30 END CTAB
M  END
$$$$
R-group 345 (35689-2)
     RDKit          3D

  0  0  0  0  0  0  0  0  0  0999 V3000
M  V30 BEGIN CTAB
M  V30 COUNTS 16 16 0 0 1
M  V30 BEGIN ATOM
M  V30 1 C 73.556000 54.834600 41.524700 0 CFG=1
M  V30 2 C 73.597700 55.739300 42.769600 0
M  V30 3 C 74.398000 56.974700 42.340800 0 CFG=1
M  V30 4 O 75.672400 56.858600 42.925200 0
M  V30 5 C 74.597300 56.847600 40.830300 0 CFG=2
M  V30 6 F 73.505500 57.263000 40.183500 0
M  V30 7 C 74.664600 55.356700 40.602300 0
M  V30 8 H 72.631500 55.083900 41.002600 0
M  V30 9 H 72.591400 55.998400 43.096600 0
M  V30 10 H 74.072800 55.268900 43.626600 0
M  V30 11 H 73.925500 57.909400 42.642500 0
M  V30 12 H 75.467600 57.373000 40.439200 0
M  V30 13 H 75.643700 54.959300 40.873500 0
M  V30 14 H 74.472500 55.171100 39.549500 0
M  V30 15 H 76.071700 57.714400 42.965900 0
M  V30 16 R 73.481200 53.314700 41.766200 0
M  V30 END ATOM
M  V30 BEGIN BOND
M  V30 1 1 2 1
M  V30 2 1 3 2
M  V30 3 1 4 3
M  V30 4 1 5 3
M  V30 5 1 6 5
M  V30 6 1 7 1
M  V30 7 1 7 5
M  V30 8 1 1 8 CFG=3
M  V30 9 1 9 2
M  V30 10 1 10 2
M  V30 11 1 3 11 CFG=3
M  V30 12 1 5 12 CFG=3
M  V30 13 1 13 7
M  V30 14 1 14 7
M  V30 15 1 15 4
M  V30 16 1 16 1
M  V30 END BOND
M  V30 END CTAB
M  END
$$$$
R-group 346 (1358-1)
     RDKit          3D

  0  0  0  0  0  0  0  0  0  0999 V3000
M  V30 BEGIN CTAB
M  V30 COUNTS 12 12 0 0 1
M  V30 BEGIN ATOM
M  V30 1 C 74.088800 55.388500 41.954800 0
M  V30 2 C 73.565900 56.057100 43.217000 0
M  V30 3 C 75.416500 55.885200 41.408300 0
M  V30 4 C 74.145800 56.260800 40.703500 0
M  V30 5 H 73.749800 57.131400 43.193400 0
M  V30 6 H 72.491800 55.904000 43.325300 0
M  V30 7 H 74.072400 55.657100 44.092400 0
M  V30 8 H 75.930600 56.667600 41.963400 0
M  V30 9 H 76.071400 55.188900 40.898600 0
M  V30 10 H 73.995700 55.829300 39.718000 0
M  V30 11 H 73.818800 57.295200 40.792100 0
M  V30 12 R 73.715300 53.877700 41.902200 0
M  V30 END ATOM
M  V30 BEGIN BOND
M  V30 1 1 2 1
M  V30 2 1 3 1
M  V30 3 1 4 1
M  V30 4 1 4 3
M  V30 5 1 5 2
M  V30 6 1 6 2
M  V30 7 1 7 2
M  V30 8 1 8 3
M  V30 9 1 9 3
M  V30 10 1 10 4
M  V30 11 1 11 4
M  V30 12 1 12 1
M  V30 END BOND
M  V30 END CTAB
M  END
$$$$
R-group 347 (29026-1)
     RDKit          3D

  0  0  0  0  0  0  0  0  0  0999 V3000
M  V30 BEGIN CTAB
M  V30 COUNTS 19 19 0 0 1
M  V30 BEGIN ATOM
M  V30 1 C 73.797000 55.023700 42.054400 0 CFG=1
M  V30 2 C 75.253800 55.512200 42.127000 0
M  V30 3 C 75.296300 56.786600 41.308400 0
M  V30 4 C 73.880300 56.931200 40.739800 0
M  V30 5 C 73.887400 57.151400 39.227800 0
M  V30 6 C 73.045000 57.966700 41.516100 0
M  V30 7 O 73.275600 55.663600 40.898200 0
M  V30 8 H 73.267100 55.410900 42.924800 0
M  V30 9 H 75.576000 55.669000 43.156500 0
M  V30 10 H 75.940500 54.806900 41.674800 0
M  V30 11 H 75.593500 57.652900 41.900200 0
M  V30 12 H 76.036000 56.681900 40.513000 0
M  V30 13 H 74.465800 58.021200 38.930000 0
M  V30 14 H 74.331600 56.297800 38.715300 0
M  V30 15 H 72.873500 57.257900 38.842300 0
M  V30 16 H 73.621100 58.859100 41.723300 0
M  V30 17 H 72.145400 58.256200 40.973900 0
M  V30 18 H 72.744200 57.590500 42.492200 0
M  V30 19 R 73.559400 53.492000 41.964700 0
M  V30 END ATOM
M  V30 BEGIN BOND
M  V30 1 1 2 1
M  V30 2 1 3 2
M  V30 3 1 4 3
M  V30 4 1 5 4
M  V30 5 1 6 4
M  V30 6 1 7 1
M  V30 7 1 7 4
M  V30 8 1 1 8 CFG=1
M  V30 9 1 9 2
M  V30 10 1 10 2
M  V30 11 1 11 3
M  V30 12 1 12 3
M  V30 13 1 13 5
M  V30 14 1 14 5
M  V30 15 1 15 5
M  V30 16 1 16 6
M  V30 17 1 17 6
M  V30 18 1 18 6
M  V30 19 1 19 1
M  V30 END BOND
M  V30 END CTAB
M  END
$$$$
R-group 348 (14272-1)
     RDKit          3D

  0  0  0  0  0  0  0  0  0  0999 V3000
M  V30 BEGIN CTAB
M  V30 COUNTS 13 13 0 0 1
M  V30 BEGIN ATOM
M  V30 1 C 73.926700 55.313500 41.645900 0
M  V30 2 C 73.666400 55.956100 43.002500 0
M  V30 3 F 73.801900 57.279800 42.924700 0
M  V30 4 C 75.210200 55.756900 40.920400 0
M  V30 5 O 74.470700 56.120500 39.729400 0
M  V30 6 C 73.257400 56.104900 40.499800 0
M  V30 7 H 72.641600 55.773300 43.325000 0
M  V30 8 H 74.357300 55.612600 43.767300 0
M  V30 9 H 75.702800 56.623600 41.366900 0
M  V30 10 H 75.935500 54.966100 40.741400 0
M  V30 11 H 72.418800 55.626000 40.007600 0
M  V30 12 H 72.956500 57.123100 40.750200 0
M  V30 13 R 73.647800 53.765700 41.767000 0
M  V30 END ATOM
M  V30 BEGIN BOND
M  V30 1 1 2 1
M  V30 2 1 3 2
M  V30 3 1 4 1
M  V30 4 1 5 4
M  V30 5 1 6 1
M  V30 6 1 6 5
M  V30 7 1 7 2
M  V30 8 1 8 2
M  V30 9 1 9 4
M  V30 10 1 10 4
M  V30 11 1 11 6
M  V30 12 1 12 6
M  V30 13 1 13 1
M  V30 END BOND
M  V30 END CTAB
M  END
$$$$
R-group 349 (10908-1)
     RDKit          3D

  0  0  0  0  0  0  0  0  0  0999 V3000
M  V30 BEGIN CTAB
M  V30 COUNTS 16 16 0 0 1
M  V30 BEGIN ATOM
M  V30 1 C 73.211100 54.777200 42.316000 0
M  V30 2 C 73.641600 55.917200 41.358000 0 CFG=2
M  V30 3 C 75.151200 55.955500 41.123000 0
M  V30 4 C 75.660900 56.802300 42.284400 0
M  V30 5 O 74.475900 57.258300 42.924600 0
M  V30 6 C 73.423600 57.271600 41.999600 0
M  V30 7 H 72.147400 54.855700 42.527600 0
M  V30 8 H 73.673100 54.938600 43.291300 0
M  V30 9 H 73.077500 55.876300 40.426500 0
M  V30 10 H 75.624900 54.974700 41.090700 0
M  V30 11 H 75.370000 56.456800 40.179100 0
M  V30 12 H 76.254700 56.218700 42.987700 0
M  V30 13 H 76.263800 57.638100 41.927300 0
M  V30 14 H 73.548700 58.086900 41.287000 0
M  V30 15 H 72.473000 57.390800 42.507600 0
M  V30 16 R 73.445100 53.337100 41.806300 0
M  V30 END ATOM
M  V30 BEGIN BOND
M  V30 1 1 2 1
M  V30 2 1 3 2
M  V30 3 1 4 3
M  V30 4 1 5 4
M  V30 5 1 6 2
M  V30 6 1 6 5
M  V30 7 1 7 1
M  V30 8 1 8 1
M  V30 9 1 2 9 CFG=3
M  V30 10 1 10 3
M  V30 11 1 11 3
M  V30 12 1 12 4
M  V30 13 1 13 4
M  V30 14 1 14 6
M  V30 15 1 15 6
M  V30 16 1 16 1
M  V30 END BOND
M  V30 END CTAB
M  END
$$$$
R-group 350 (4908-1)
     RDKit          3D

  0  0  0  0  0  0  0  0  0  0999 V3000
M  V30 BEGIN CTAB
M  V30 COUNTS 11 11 0 0 1
M  V30 BEGIN ATOM
M  V30 1 C 72.700700 54.291200 41.925100 0
M  V30 2 C 73.690900 55.365900 41.677600 0
M  V30 3 C 73.893800 56.076800 40.519200 0
M  V30 4 N 75.044100 56.856600 40.546600 0
M  V30 5 C 75.630100 56.854700 41.737000 0
M  V30 6 S 74.873900 55.770700 42.892600 0
M  V30 7 H 71.818900 54.443300 41.303400 0
M  V30 8 H 72.317500 54.337000 42.925800 0
M  V30 9 H 73.330900 56.019500 39.600600 0
M  V30 10 H 76.524800 57.430200 41.923100 0
M  V30 11 R 73.253400 52.904500 41.592500 0
M  V30 END ATOM
M  V30 BEGIN BOND
M  V30 1 1 2 1
M  V30 2 2 3 2
M  V30 3 1 4 3
M  V30 4 2 5 4
M  V30 5 1 6 2
M  V30 6 1 6 5
M  V30 7 1 7 1
M  V30 8 1 8 1
M  V30 9 1 9 3
M  V30 10 1 10 5
M  V30 11 1 11 1
M  V30 END BOND
M  V30 END CTAB
M  END
$$$$
R-group 351 (2214-1)
     RDKit          3D

  0  0  0  0  0  0  0  0  0  0999 V3000
M  V30 BEGIN CTAB
M  V30 COUNTS 13 13 0 0 1
M  V30 BEGIN ATOM
M  V30 1 N 74.107700 55.141800 41.915300 0
M  V30 2 C 74.457000 55.800300 43.169200 0
M  V30 3 C 74.598900 57.284600 42.869200 0
M  V30 4 C 74.472600 57.409800 41.356900 0
M  V30 5 C 74.072800 56.032100 40.901000 0
M  V30 6 O 73.741300 55.845400 39.731000 0
M  V30 7 H 73.672900 55.658000 43.907900 0
M  V30 8 H 75.398300 55.418100 43.565200 0
M  V30 9 H 75.556300 57.657900 43.235800 0
M  V30 10 H 73.810400 57.858200 43.358400 0
M  V30 11 H 75.429400 57.658000 40.898900 0
M  V30 12 H 73.693600 58.119900 41.072700 0
M  V30 13 R 73.728200 53.706300 41.951100 0
M  V30 END ATOM
M  V30 BEGIN BOND
M  V30 1 1 2 1
M  V30 2 1 3 2
M  V30 3 1 4 3
M  V30 4 1 5 1
M  V30 5 1 5 4
M  V30 6 2 6 5
M  V30 7 1 7 2
M  V30 8 1 8 2
M  V30 9 1 9 3
M  V30 10 1 10 3
M  V30 11 1 11 4
M  V30 12 1 12 4
M  V30 13 1 13 1
M  V30 END BOND
M  V30 END CTAB
M  END
$$$$
R-group 352 (11262-4)
     RDKit          3D

  0  0  0  0  0  0  0  0  0  0999 V3000
M  V30 BEGIN CTAB
M  V30 COUNTS 22 22 0 0 1
M  V30 BEGIN ATOM
M  V30 1 C 73.667400 55.012500 41.646300 0
M  V30 2 C 73.220500 55.743600 42.924900 0
M  V30 3 C 73.523600 57.243300 42.899600 0 CFG=2
M  V30 4 C 72.734300 58.174700 41.958700 0
M  V30 5 O 74.907600 57.258100 42.641500 0
M  V30 6 C 75.306100 56.871400 41.342100 0 CFG=1
M  V30 7 C 76.735500 57.373700 41.180600 0
M  V30 8 C 75.148300 55.365900 41.350100 0
M  V30 9 H 73.056100 55.415100 40.838200 0
M  V30 10 H 72.191600 55.548700 43.232200 0
M  V30 11 H 73.836600 55.347200 43.725100 0
M  V30 12 H 73.356500 57.650200 43.893400 0
M  V30 13 H 71.784200 58.458100 42.408700 0
M  V30 14 H 73.270300 59.113900 41.806700 0
M  V30 15 H 72.536900 57.734600 40.979600 0
M  V30 16 H 74.699700 57.291900 40.543400 0
M  V30 17 H 77.255000 56.961500 40.312600 0
M  V30 18 H 76.746900 58.458000 41.070700 0
M  V30 19 H 77.272700 57.154100 42.097900 0
M  V30 20 H 75.796000 54.962100 42.123000 0
M  V30 21 H 75.516900 54.968700 40.410300 0
M  V30 22 R 73.402300 53.490900 41.743200 0
M  V30 END ATOM
M  V30 BEGIN BOND
M  V30 1 1 2 1
M  V30 2 1 3 2
M  V30 3 1 4 3
M  V30 4 1 5 3
M  V30 5 1 6 5
M  V30 6 1 7 6
M  V30 7 1 8 1
M  V30 8 1 8 6
M  V30 9 1 9 1
M  V30 10 1 10 2
M  V30 11 1 11 2
M  V30 12 1 3 12 CFG=1
M  V30 13 1 13 4
M  V30 14 1 14 4
M  V30 15 1 15 4
M  V30 16 1 6 16 CFG=3
M  V30 17 1 17 7
M  V30 18 1 18 7
M  V30 19 1 19 7
M  V30 20 1 20 8
M  V30 21 1 21 8
M  V30 22 1 22 1
M  V30 END BOND
M  V30 END CTAB
M  END
$$$$
R-group 353 (32793-1)
     RDKit          3D

  0  0  0  0  0  0  0  0  0  0999 V3000
M  V30 BEGIN CTAB
M  V30 COUNTS 16 16 0 0 1
M  V30 BEGIN ATOM
M  V30 1 C 74.491700 55.217600 41.708400 0 CFG=2
M  V30 2 C 74.550800 55.879100 43.091100 0
M  V30 3 O 74.537000 57.257900 42.819300 0
M  V30 4 C 73.596000 57.465600 41.791100 0
M  V30 5 C 73.919000 56.342000 40.809600 0 CFG=1
M  V30 6 C 74.871000 56.801300 39.709600 0
M  V30 7 F 72.840600 56.011900 40.124500 0
M  V30 8 H 75.527100 55.067600 41.399300 0
M  V30 9 H 73.672500 55.658100 43.695100 0
M  V30 10 H 75.438900 55.600000 43.659300 0
M  V30 11 H 73.672200 58.458000 41.356300 0
M  V30 12 H 72.596000 57.366600 42.209300 0
M  V30 13 H 75.882400 56.980300 40.078000 0
M  V30 14 H 74.872400 56.058300 38.917800 0
M  V30 15 H 74.501100 57.706400 39.233300 0
M  V30 16 R 73.803300 53.814900 41.764300 0
M  V30 END ATOM
M  V30 BEGIN BOND
M  V30 1 1 2 1
M  V30 2 1 3 2
M  V30 3 1 4 3
M  V30 4 1 5 1
M  V30 5 1 5 4
M  V30 6 1 6 5
M  V30 7 1 5 7 CFG=3
M  V30 8 1 1 8 CFG=3
M  V30 9 1 9 2
M  V30 10 1 10 2
M  V30 11 1 11 4
M  V30 12 1 12 4
M  V30 13 1 13 6
M  V30 14 1 14 6
M  V30 15 1 15 6
M  V30 16 1 16 1
M  V30 END BOND
M  V30 END CTAB
M  END
$$$$
R-group 354 (659-1)
     RDKit          3D

  0  0  0  0  0  0  0  0  0  0999 V3000
M  V30 BEGIN CTAB
M  V30 COUNTS 17 16 0 0 1
M  V30 BEGIN ATOM
M  V30 1 C 73.610400 54.850700 42.027600 0
M  V30 2 C 75.053900 55.397900 42.044800 0
M  V30 3 C 75.071200 56.892100 41.739300 0
M  V30 4 C 76.468700 57.384700 41.324700 0
M  V30 5 C 74.466400 57.658300 42.919200 0
M  V30 6 H 73.096200 55.128600 42.938800 0
M  V30 7 H 73.040900 55.345500 41.241300 0
M  V30 8 H 75.672400 54.887300 41.314000 0
M  V30 9 H 75.523700 55.206400 43.010200 0
M  V30 10 H 74.429500 57.060100 40.872200 0
M  V30 11 H 77.193200 57.265900 42.124500 0
M  V30 12 H 76.472300 58.433400 41.029600 0
M  V30 13 H 76.830900 56.820400 40.466700 0
M  V30 14 H 75.190500 57.887200 43.709700 0
M  V30 15 H 74.035700 58.568900 42.524300 0
M  V30 16 H 73.629100 57.147700 43.386300 0
M  V30 17 R 73.470300 53.336900 41.850500 0
M  V30 END ATOM
M  V30 BEGIN BOND
M  V30 1 1 2 1
M  V30 2 1 3 2
M  V30 3 1 4 3
M  V30 4 1 5 3
M  V30 5 1 6 1
M  V30 6 1 7 1
M  V30 7 1 8 2
M  V30 8 1 9 2
M  V30 9 1 10 3
M  V30 10 1 11 4
M  V30 11 1 12 4
M  V30 12 1 13 4
M  V30 13 1 14 5
M  V30 14 1 15 5
M  V30 15 1 16 5
M  V30 16 1 17 1
M  V30 END BOND
M  V30 END CTAB
M  END
$$$$
R-group 355 (29061-2)
     RDKit          3D

  0  0  0  0  0  0  0  0  0  0999 V3000
M  V30 BEGIN CTAB
M  V30 COUNTS 19 19 0 0 1
M  V30 BEGIN ATOM
M  V30 1 C 72.543800 58.709000 41.656300 0
M  V30 2 O 73.438300 57.677100 42.010400 0
M  V30 3 C 73.441600 56.541100 41.163100 0 CFG=1
M  V30 4 C 74.441500 56.797900 40.039400 0
M  V30 5 C 75.765300 56.801900 40.787000 0
M  V30 6 C 75.589200 55.750600 41.893700 0
M  V30 7 C 74.076800 55.441800 42.047200 0 CFG=2
M  V30 8 H 72.880200 59.645700 42.089400 0
M  V30 9 H 72.449500 58.839900 40.574900 0
M  V30 10 H 71.589400 58.506500 42.125100 0
M  V30 11 H 72.472800 56.340400 40.723600 0
M  V30 12 H 74.396700 56.007300 39.299000 0
M  V30 13 H 74.234000 57.690400 39.464800 0
M  V30 14 H 76.640200 56.597000 40.143800 0
M  V30 15 H 75.933300 57.770500 41.243000 0
M  V30 16 H 76.032100 56.094200 42.838500 0
M  V30 17 H 76.068300 54.858000 41.598000 0
M  V30 18 H 73.814000 55.646800 43.087300 0
M  V30 19 R 73.639100 53.939000 41.806200 0
M  V30 END ATOM
M  V30 BEGIN BOND
M  V30 1 1 2 1
M  V30 2 1 3 2
M  V30 3 1 4 3
M  V30 4 1 5 4
M  V30 5 1 6 5
M  V30 6 1 7 3
M  V30 7 1 7 6
M  V30 8 1 8 1
M  V30 9 1 9 1
M  V30 10 1 10 1
M  V30 11 1 3 11 CFG=3
M  V30 12 1 12 4
M  V30 13 1 13 4
M  V30 14 1 14 5
M  V30 15 1 15 5
M  V30 16 1 16 6
M  V30 17 1 17 6
M  V30 18 1 7 18 CFG=1
M  V30 19 1 19 7
M  V30 END BOND
M  V30 END CTAB
M  END
$$$$
R-group 356 (1226-1)
     RDKit          3D

  0  0  0  0  0  0  0  0  0  0999 V3000
M  V30 BEGIN CTAB
M  V30 COUNTS 13 13 0 0 1
M  V30 BEGIN ATOM
M  V30 1 C 74.069000 55.218900 41.886400 0 CFG=1
M  V30 2 C 73.637100 56.187600 40.789500 0
M  V30 3 C 73.896900 57.528300 41.458100 0
M  V30 4 O 73.671900 57.330600 42.846700 0
M  V30 5 C 73.545000 55.942600 43.126000 0
M  V30 6 H 75.159800 55.249800 41.913500 0
M  V30 7 H 74.214400 56.079900 39.870000 0
M  V30 8 H 72.586000 56.092300 40.524100 0
M  V30 9 H 74.945700 57.786000 41.324800 0
M  V30 10 H 73.271300 58.327700 41.055600 0
M  V30 11 H 72.490700 55.727200 43.308100 0
M  V30 12 H 74.094700 55.657100 44.020000 0
M  V30 13 R 73.617900 53.737200 41.774800 0
M  V30 END ATOM
M  V30 BEGIN BOND
M  V30 1 1 2 1
M  V30 2 1 3 2
M  V30 3 1 4 3
M  V30 4 1 5 1
M  V30 5 1 5 4
M  V30 6 1 1 6 CFG=1
M  V30 7 1 7 2
M  V30 8 1 8 2
M  V30 9 1 9 3
M  V30 10 1 10 3
M  V30 11 1 11 5
M  V30 12 1 12 5
M  V30 13 1 13 1
M  V30 END BOND
M  V30 END CTAB
M  END
$$$$
R-group 357 (5663-2)
     RDKit          3D

  0  0  0  0  0  0  0  0  0  0999 V3000
M  V30 BEGIN CTAB
M  V30 COUNTS 20 20 0 0 1
M  V30 BEGIN ATOM
M  V30 1 C 73.860700 54.785400 41.643900 0 CFG=1
M  V30 2 C 73.216600 55.549000 40.454400 0
M  V30 3 C 73.740700 56.984000 40.378300 0 CFG=2
M  V30 4 O 75.116100 56.858000 40.124800 0
M  V30 5 C 73.543700 57.730900 41.701200 0
M  V30 6 C 74.129900 56.968500 42.884100 0 CFG=2
M  V30 7 O 75.551300 56.857900 42.918800 0
M  V30 8 C 73.584400 55.553000 42.942300 0
M  V30 9 H 74.939200 54.803600 41.484700 0
M  V30 10 H 73.441500 55.097400 39.490800 0
M  V30 11 H 72.134500 55.508700 40.524300 0
M  V30 12 H 73.269900 57.521200 39.554400 0
M  V30 13 H 73.931600 58.744000 41.723400 0
M  V30 14 H 72.472200 57.851400 41.868300 0
M  V30 15 H 73.791600 57.544400 43.724700 0
M  V30 16 H 72.518100 55.584100 43.162900 0
M  V30 17 H 74.075200 55.066000 43.777900 0
M  V30 18 H 75.537700 56.617900 40.943200 0
M  V30 19 H 75.917700 57.666800 43.250300 0
M  V30 20 R 73.507500 53.288400 41.771100 0
M  V30 END ATOM
M  V30 BEGIN BOND
M  V30 1 1 2 1
M  V30 2 1 3 2
M  V30 3 1 4 3
M  V30 4 1 5 3
M  V30 5 1 6 5
M  V30 6 1 7 6
M  V30 7 1 8 1
M  V30 8 1 8 6
M  V30 9 1 1 9 CFG=3
M  V30 10 1 10 2
M  V30 11 1 11 2
M  V30 12 1 3 12 CFG=3
M  V30 13 1 13 5
M  V30 14 1 14 5
M  V30 15 1 6 15 CFG=1
M  V30 16 1 16 8
M  V30 17 1 17 8
M  V30 18 1 18 4
M  V30 19 1 19 7
M  V30 20 1 20 1
M  V30 END BOND
M  V30 END CTAB
M  END
$$$$
R-group 358 (1571-1)
     RDKit          3D

  0  0  0  0  0  0  0  0  0  0999 V3000
M  V30 BEGIN CTAB
M  V30 COUNTS 9 9 0 0 1
M  V30 BEGIN ATOM
M  V30 1 C 74.149200 55.046700 41.915700 0
M  V30 2 C 75.272300 55.585100 41.235800 0
M  V30 3 C 75.420600 56.857900 41.668600 0
M  V30 4 O 74.425600 57.196400 42.524000 0
M  V30 5 C 73.672400 56.082200 42.665700 0
M  V30 6 H 75.958300 55.096900 40.562500 0
M  V30 7 H 76.138000 57.639900 41.463900 0
M  V30 8 H 72.852000 56.172900 43.362300 0
M  V30 9 R 73.648100 53.629800 41.869000 0
M  V30 END ATOM
M  V30 BEGIN BOND
M  V30 1 1 2 1
M  V30 2 2 3 2
M  V30 3 1 4 3
M  V30 4 2 5 1
M  V30 5 1 5 4
M  V30 6 1 6 2
M  V30 7 1 7 3
M  V30 8 1 8 5
M  V30 9 1 9 1
M  V30 END BOND
M  V30 END CTAB
M  END
$$$$
R-group 359 (40104-2)
     RDKit          3D

  0  0  0  0  0  0  0  0  0  0999 V3000
M  V30 BEGIN CTAB
M  V30 COUNTS 16 16 0 0 1
M  V30 BEGIN ATOM
M  V30 1 N 73.903700 55.028200 41.857200 0
M  V30 2 C 73.678100 55.741600 43.104900 0
M  V30 3 C 74.045300 57.199700 42.857200 0
M  V30 4 C 74.133300 57.327300 41.339800 0 CFG=2
M  V30 5 C 72.997100 58.164800 40.714300 0
M  V30 6 C 74.058800 55.904800 40.846000 0
M  V30 7 O 74.071900 55.680900 39.639300 0
M  V30 8 H 72.612500 55.662800 43.324700 0
M  V30 9 H 74.248900 55.341600 43.939500 0
M  V30 10 H 73.311600 57.872800 43.302800 0
M  V30 11 H 75.011100 57.430500 43.310800 0
M  V30 12 H 75.128900 57.658000 41.055900 0
M  V30 13 H 73.272600 58.530400 39.725100 0
M  V30 14 H 72.084400 57.586800 40.574800 0
M  V30 15 H 72.746200 59.023800 41.335300 0
M  V30 16 R 73.654100 53.568700 41.837700 0
M  V30 END ATOM
M  V30 BEGIN BOND
M  V30 1 1 2 1
M  V30 2 1 3 2
M  V30 3 1 4 3
M  V30 4 1 5 4
M  V30 5 1 6 1
M  V30 6 1 6 4
M  V30 7 2 7 6
M  V30 8 1 8 2
M  V30 9 1 9 2
M  V30 10 1 10 3
M  V30 11 1 11 3
M  V30 12 1 4 12 CFG=1
M  V30 13 1 13 5
M  V30 14 1 14 5
M  V30 15 1 15 5
M  V30 16 1 16 1
M  V30 END BOND
M  V30 END CTAB
M  END
$$$$
R-group 360 (2322-2)
     RDKit          3D

  0  0  0  0  0  0  0  0  0  0999 V3000
M  V30 BEGIN CTAB
M  V30 COUNTS 15 14 0 0 1
M  V30 BEGIN ATOM
M  V30 1 C 75.858300 57.253300 43.055000 0
M  V30 2 C 74.472700 56.788400 42.660900 0
M  V30 3 C 74.578200 55.530400 41.826000 0 CFG=2
M  V30 4 O 74.873500 55.960500 40.523100 0
M  V30 5 C 73.262400 54.754800 41.868100 0
M  V30 6 H 75.672300 58.057800 43.723600 0
M  V30 7 H 76.405300 56.489100 43.603200 0
M  V30 8 H 76.459600 57.600200 42.211000 0
M  V30 9 H 73.930100 57.572000 42.131900 0
M  V30 10 H 73.905000 56.584200 43.567500 0
M  V30 11 H 75.408700 54.931100 42.190300 0
M  V30 12 H 72.601000 55.189600 41.120700 0
M  V30 13 H 72.776300 54.897800 42.836200 0
M  V30 14 H 75.680400 56.451500 40.549600 0
M  V30 15 R 73.358300 53.239900 41.654800 0
M  V30 END ATOM
M  V30 BEGIN BOND
M  V30 1 1 2 1
M  V30 2 1 3 2
M  V30 3 1 4 3
M  V30 4 1 5 3
M  V30 5 1 6 1
M  V30 6 1 7 1
M  V30 7 1 8 1
M  V30 8 1 9 2
M  V30 9 1 10 2
M  V30 10 1 3 11 CFG=1
M  V30 11 1 12 5
M  V30 12 1 13 5
M  V30 13 1 14 4
M  V30 14 1 15 5
M  V30 END BOND
M  V30 END CTAB
M  END
$$$$
R-group 361 (29061-4)
     RDKit          3D

  0  0  0  0  0  0  0  0  0  0999 V3000
M  V30 BEGIN CTAB
M  V30 COUNTS 19 19 0 0 1
M  V30 BEGIN ATOM
M  V30 1 C 72.946300 56.909900 38.921500 0
M  V30 2 O 72.947600 56.224000 40.125800 0
M  V30 3 C 74.199900 56.244500 40.784500 0 CFG=1
M  V30 4 C 74.372400 57.589000 41.501300 0
M  V30 5 C 74.142200 57.368600 42.991300 0
M  V30 6 C 73.713400 55.911100 43.140800 0
M  V30 7 C 74.284400 55.192700 41.912700 0 CFG=1
M  V30 8 H 71.920200 56.896600 38.574000 0
M  V30 9 H 73.273800 57.946700 39.024400 0
M  V30 10 H 73.598400 56.436300 38.186300 0
M  V30 11 H 75.002700 56.100200 40.065700 0
M  V30 12 H 75.385100 57.938600 41.327400 0
M  V30 13 H 73.672200 58.339800 41.148700 0
M  V30 14 H 75.083800 57.547600 43.515900 0
M  V30 15 H 73.397700 58.053600 43.401800 0
M  V30 16 H 72.623200 55.846900 43.143400 0
M  V30 17 H 74.075400 55.482400 44.073700 0
M  V30 18 H 75.360300 55.102400 42.096100 0
M  V30 19 R 73.727300 53.752200 41.679300 0
M  V30 END ATOM
M  V30 BEGIN BOND
M  V30 1 1 2 1
M  V30 2 1 3 2
M  V30 3 1 4 3
M  V30 4 1 5 4
M  V30 5 1 6 5
M  V30 6 1 7 3
M  V30 7 1 7 6
M  V30 8 1 8 1
M  V30 9 1 9 1
M  V30 10 1 10 1
M  V30 11 1 3 11 CFG=3
M  V30 12 1 12 4
M  V30 13 1 13 4
M  V30 14 1 14 5
M  V30 15 1 15 5
M  V30 16 1 16 6
M  V30 17 1 17 6
M  V30 18 1 7 18 CFG=1
M  V30 19 1 19 7
M  V30 END BOND
M  V30 END CTAB
M  END
$$$$
R-group 362 (16185-1)
     RDKit          3D

  0  0  0  0  0  0  0  0  0  0999 V3000
M  V30 BEGIN CTAB
M  V30 COUNTS 12 11 0 0 1
M  V30 BEGIN ATOM
M  V30 1 O 73.684900 55.051000 42.123400 0
M  V30 2 C 75.016000 55.542800 41.972200 0
M  V30 3 C 74.998700 56.934400 41.336800 0 CFG=1
M  V30 4 C 76.425800 57.432300 41.069100 0
M  V30 5 F 74.352900 56.856900 40.171300 0
M  V30 6 H 75.485200 55.580000 42.955900 0
M  V30 7 H 75.643000 54.894200 41.364300 0
M  V30 8 H 74.450700 57.636300 41.966200 0
M  V30 9 H 77.033200 57.389900 41.971800 0
M  V30 10 H 76.881600 56.800000 40.311100 0
M  V30 11 H 76.472300 58.455800 40.701400 0
M  V30 12 R 73.465700 53.661800 41.868800 0
M  V30 END ATOM
M  V30 BEGIN BOND
M  V30 1 1 2 1
M  V30 2 1 3 2
M  V30 3 1 4 3
M  V30 4 1 5 3
M  V30 5 1 6 2
M  V30 6 1 7 2
M  V30 7 1 3 8 CFG=1
M  V30 8 1 9 4
M  V30 9 1 10 4
M  V30 10 1 11 4
M  V30 11 1 12 1
M  V30 END BOND
M  V30 END CTAB
M  END
$$$$
R-group 363 (1917-2)
     RDKit          3D

  0  0  0  0  0  0  0  0  0  0999 V3000
M  V30 BEGIN CTAB
M  V30 COUNTS 11 10 0 0 1
M  V30 BEGIN ATOM
M  V30 1 C 73.639100 55.203800 42.124900 0
M  V30 2 C 75.062300 55.773500 42.120400 0 CFG=2
M  V30 3 C 75.080400 57.258000 42.438400 0
M  V30 4 F 75.626300 55.658000 40.924700 0
M  V30 5 H 73.046500 55.770300 41.408700 0
M  V30 6 H 73.205100 55.422700 43.099900 0
M  V30 7 H 75.677300 55.242100 42.840100 0
M  V30 8 H 74.668300 57.474600 43.418500 0
M  V30 9 H 76.101800 57.641900 42.411200 0
M  V30 10 H 74.482200 57.815500 41.716200 0
M  V30 11 R 73.474100 53.688100 41.848200 0
M  V30 END ATOM
M  V30 BEGIN BOND
M  V30 1 1 2 1
M  V30 2 1 3 2
M  V30 3 1 4 2
M  V30 4 1 5 1
M  V30 5 1 6 1
M  V30 6 1 2 7 CFG=1
M  V30 7 1 8 3
M  V30 8 1 9 3
M  V30 9 1 10 3
M  V30 10 1 11 1
M  V30 END BOND
M  V30 END CTAB
M  END
$$$$
R-group 364 (1359-4)
     RDKit          3D

  0  0  0  0  0  0  0  0  0  0999 V3000
M  V30 BEGIN CTAB
M  V30 COUNTS 12 12 0 0 1
M  V30 BEGIN ATOM
M  V30 1 C 73.846700 55.344500 42.428100 0 CFG=1
M  V30 2 C 75.088600 56.205300 42.394300 0
M  V30 3 C 73.843200 56.674600 41.676800 0 CFG=2
M  V30 4 C 73.084800 57.879100 42.215300 0
M  V30 5 H 73.252500 55.384800 43.324700 0
M  V30 6 H 75.367700 56.710200 43.317200 0
M  V30 7 H 75.924200 55.871200 41.782300 0
M  V30 8 H 73.908000 56.662700 40.591500 0
M  V30 9 H 72.839100 57.744900 43.269200 0
M  V30 10 H 73.673800 58.785300 42.122800 0
M  V30 11 H 72.170200 58.058000 41.652600 0
M  V30 12 R 73.826800 53.943800 41.796700 0
M  V30 END ATOM
M  V30 BEGIN BOND
M  V30 1 1 2 1
M  V30 2 1 3 1
M  V30 3 1 3 2
M  V30 4 1 4 3
M  V30 5 1 1 5 CFG=1
M  V30 6 1 6 2
M  V30 7 1 7 2
M  V30 8 1 3 8 CFG=3
M  V30 9 1 9 4
M  V30 10 1 10 4
M  V30 11 1 11 4
M  V30 12 1 12 1
M  V30 END BOND
M  V30 END CTAB
M  END
$$$$
R-group 365 (560-1)
     RDKit          3D

  0  0  0  0  0  0  0  0  0  0999 V3000
M  V30 BEGIN CTAB
M  V30 COUNTS 13 13 0 0 1
M  V30 BEGIN ATOM
M  V30 1 C 74.311300 55.252800 41.847100 0
M  V30 2 O 75.215700 55.677700 41.129300 0
M  V30 3 N 73.672200 56.015100 42.728900 0
M  V30 4 C 73.878200 57.390100 42.946500 0
M  V30 5 C 72.882500 58.375700 42.379600 0
M  V30 6 C 72.872200 58.058000 43.852000 0
M  V30 7 H 74.912100 57.689700 43.086700 0
M  V30 8 H 73.272200 59.325000 42.067500 0
M  V30 9 H 72.072400 58.028400 41.754900 0
M  V30 10 H 72.072300 57.437200 44.247800 0
M  V30 11 H 73.202200 58.857000 44.524600 0
M  V30 12 H 72.990500 55.559300 43.325000 0
M  V30 13 R 73.829300 53.791500 41.793100 0
M  V30 END ATOM
M  V30 BEGIN BOND
M  V30 1 2 2 1
M  V30 2 1 3 1
M  V30 3 1 4 3
M  V30 4 1 5 4
M  V30 5 1 6 4
M  V30 6 1 6 5
M  V30 7 1 7 4
M  V30 8 1 8 5
M  V30 9 1 9 5
M  V30 10 1 10 6
M  V30 11 1 11 6
M  V30 12 1 12 3
M  V30 13 1 13 1
M  V30 END BOND
M  V30 END CTAB
M  END
$$$$
R-group 366 (11475-2)
     RDKit          3D

  0  0  0  0  0  0  0  0  0  0999 V3000
M  V30 BEGIN CTAB
M  V30 COUNTS 21 22 0 0 1
M  V30 BEGIN ATOM
M  V30 1 N 73.738700 54.406100 41.331000 0
M  V30 2 C 72.470500 54.858100 40.826100 0 CFG=1
M  V30 3 C 72.546200 56.205000 40.119500 0
M  V30 4 C 72.098100 54.992700 39.352900 0 CFG=2
M  V30 5 C 70.637000 54.874200 38.968700 0
M  V30 6 C 69.938000 53.656500 39.122200 0
M  V30 7 C 68.564900 53.562600 38.824100 0
M  V30 8 C 67.863500 54.692600 38.367400 0
M  V30 9 C 68.540500 55.916100 38.216200 0
M  V30 10 C 69.911800 56.002000 38.523200 0
M  V30 11 H 74.459700 54.519600 40.633600 0
M  V30 12 H 71.590100 54.458300 41.347500 0
M  V30 13 H 71.782200 56.972200 40.170500 0
M  V30 14 H 73.538900 56.588700 39.890000 0
M  V30 15 H 72.763200 54.593600 38.589500 0
M  V30 16 H 70.436700 52.776400 39.490700 0
M  V30 17 H 68.047500 52.622700 38.953600 0
M  V30 18 H 66.809900 54.620900 38.139900 0
M  V30 19 H 68.007500 56.790400 37.871200 0
M  V30 20 H 70.412900 56.949600 38.398800 0
M  V30 21 R 73.575400 53.001000 41.642600 0
M  V30 END ATOM
M  V30 BEGIN BOND
M  V30 1 1 2 1
M  V30 2 1 3 2
M  V30 3 1 4 2
M  V30 4 1 4 3
M  V30 5 1 5 4
M  V30 6 2 6 5
M  V30 7 1 7 6
M  V30 8 2 8 7
M  V30 9 1 9 8
M  V30 10 1 10 5
M  V30 11 2 10 9
M  V30 12 1 11 1
M  V30 13 1 2 12 CFG=1
M  V30 14 1 13 3
M  V30 15 1 14 3
M  V30 16 1 4 15 CFG=3
M  V30 17 1 16 6
M  V30 18 1 17 7
M  V30 19 1 18 8
M  V30 20 1 19 9
M  V30 21 1 20 10
M  V30 22 1 21 1
M  V30 END BOND
M  V30 END CTAB
M  END
$$$$
R-group 367 (12906-1)
     RDKit          3D

  0  0  0  0  0  0  0  0  0  0999 V3000
M  V30 BEGIN CTAB
M  V30 COUNTS 19 19 0 0 1
M  V30 BEGIN ATOM
M  V30 1 C 74.071300 55.217700 41.671300 0
M  V30 2 C 75.600800 55.455100 41.551900 0
M  V30 3 C 73.363700 55.901100 40.476700 0
M  V30 4 C 73.517300 57.423300 40.487000 0
M  V30 5 O 73.146900 58.014500 41.725300 0
M  V30 6 C 73.781000 57.455500 42.864000 0
M  V30 7 C 73.560500 55.941000 42.937000 0
M  V30 8 H 75.884200 56.478900 41.327100 0
M  V30 9 H 76.072100 55.257500 42.505800 0
M  V30 10 H 76.067900 54.858600 40.775600 0
M  V30 11 H 73.761100 55.538300 39.529900 0
M  V30 12 H 72.308600 55.651500 40.465700 0
M  V30 13 H 74.539600 57.657900 40.221000 0
M  V30 14 H 72.887600 57.861700 39.722500 0
M  V30 15 H 74.848700 57.658000 42.873900 0
M  V30 16 H 73.353900 57.944500 43.734400 0
M  V30 17 H 72.501200 55.742100 43.100700 0
M  V30 18 H 74.073300 55.559800 43.816900 0
M  V30 19 R 73.709300 53.681600 41.774900 0
M  V30 END ATOM
M  V30 BEGIN BOND
M  V30 1 1 2 1
M  V30 2 1 3 1
M  V30 3 1 4 3
M  V30 4 1 5 4
M  V30 5 1 6 5
M  V30 6 1 7 1
M  V30 7 1 7 6
M  V30 8 1 8 2
M  V30 9 1 9 2
M  V30 10 1 10 2
M  V30 11 1 11 3
M  V30 12 1 12 3
M  V30 13 1 13 4
M  V30 14 1 14 4
M  V30 15 1 15 6
M  V30 16 1 16 6
M  V30 17 1 17 7
M  V30 18 1 18 7
M  V30 19 1 19 1
M  V30 END BOND
M  V30 END CTAB
M  END
$$$$
R-group 368 (41340-2)
     RDKit          3D

  0  0  0  0  0  0  0  0  0  0999 V3000
M  V30 BEGIN CTAB
M  V30 COUNTS 14 14 0 0 1
M  V30 BEGIN ATOM
M  V30 1 C 73.790700 55.055700 42.061700 0 CFG=2
M  V30 2 C 73.509800 55.931600 40.834900 0
M  V30 3 C 74.188300 57.218900 41.206700 0 CFG=1
M  V30 4 O 73.272200 58.058000 41.876000 0
M  V30 5 C 75.314900 56.787300 42.154000 0
M  V30 6 O 75.154100 55.383200 42.293000 0
M  V30 7 H 73.216400 55.415500 42.919100 0
M  V30 8 H 74.030200 55.561900 39.956300 0
M  V30 9 H 72.472300 56.038500 40.524700 0
M  V30 10 H 74.562500 57.657600 40.289100 0
M  V30 11 H 75.236200 57.260800 43.133800 0
M  V30 12 H 76.302500 57.010400 41.749000 0
M  V30 13 H 73.696300 58.887100 42.048200 0
M  V30 14 R 73.559700 53.528900 41.911800 0
M  V30 END ATOM
M  V30 BEGIN BOND
M  V30 1 1 2 1
M  V30 2 1 3 2
M  V30 3 1 4 3
M  V30 4 1 5 3
M  V30 5 1 6 1
M  V30 6 1 6 5
M  V30 7 1 1 7 CFG=1
M  V30 8 1 8 2
M  V30 9 1 9 2
M  V30 10 1 3 10 CFG=3
M  V30 11 1 11 5
M  V30 12 1 12 5
M  V30 13 1 13 4
M  V30 14 1 14 1
M  V30 END BOND
M  V30 END CTAB
M  END
$$$$
R-group 369 (27086-2)
     RDKit          3D

  0  0  0  0  0  0  0  0  0  0999 V3000
M  V30 BEGIN CTAB
M  V30 COUNTS 12 11 0 0 1
M  V30 BEGIN ATOM
M  V30 1 N 74.037500 55.019800 42.041500 0
M  V30 2 C 74.148100 56.068100 41.216900 0
M  V30 3 O 73.591900 56.178100 40.125700 0
M  V30 4 C 75.084700 57.167100 41.695500 0 CFG=2
M  V30 5 C 76.245300 57.356100 40.715200 0
M  V30 6 F 75.583900 56.857900 42.897800 0
M  V30 7 H 75.882600 57.658000 39.735300 0
M  V30 8 H 76.936300 58.117000 41.068800 0
M  V30 9 H 76.807100 56.431800 40.582400 0
M  V30 10 H 74.524200 55.149300 42.917300 0
M  V30 11 H 74.472700 58.058600 41.806200 0
M  V30 12 R 73.518100 53.668900 41.837800 0
M  V30 END ATOM
M  V30 BEGIN BOND
M  V30 1 1 2 1
M  V30 2 2 3 2
M  V30 3 1 4 2
M  V30 4 1 5 4
M  V30 5 1 6 4
M  V30 6 1 7 5
M  V30 7 1 8 5
M  V30 8 1 9 5
M  V30 9 1 10 1
M  V30 10 1 4 11 CFG=1
M  V30 11 1 12 1
M  V30 END BOND
M  V30 END CTAB
M  END
$$$$
R-group 370 (45205-1)
     RDKit          3D

  0  0  0  0  0  0  0  0  0  0999 V3000
M  V30 BEGIN CTAB
M  V30 COUNTS 16 16 0 0 1
M  V30 BEGIN ATOM
M  V30 1 C 73.994200 55.227400 41.720500 0 CFG=2
M  V30 2 C 73.310100 55.903100 42.924900 0
M  V30 3 C 75.507800 55.537300 41.832200 0
M  V30 4 C 75.771000 56.805400 41.039300 0
M  V30 5 N 74.657700 56.850400 40.124900 0
M  V30 6 C 73.672200 56.024700 40.427800 0
M  V30 7 O 72.665300 55.916700 39.724700 0
M  V30 8 H 73.861500 55.665100 43.831700 0
M  V30 9 H 73.272900 56.990600 42.839300 0
M  V30 10 H 72.303600 55.543400 43.110700 0
M  V30 11 H 75.872700 55.625300 42.855900 0
M  V30 12 H 76.071100 54.759200 41.348700 0
M  V30 13 H 76.730400 56.795600 40.523200 0
M  V30 14 H 75.745100 57.658100 41.708000 0
M  V30 15 H 74.636400 57.446300 39.309400 0
M  V30 16 R 73.647200 53.677500 41.718100 0
M  V30 END ATOM
M  V30 BEGIN BOND
M  V30 1 1 2 1
M  V30 2 1 3 1
M  V30 3 1 4 3
M  V30 4 1 5 4
M  V30 5 1 6 1
M  V30 6 1 6 5
M  V30 7 2 7 6
M  V30 8 1 8 2
M  V30 9 1 9 2
M  V30 10 1 10 2
M  V30 11 1 11 3
M  V30 12 1 12 3
M  V30 13 1 13 4
M  V30 14 1 14 4
M  V30 15 1 15 5
M  V30 16 1 1 16 CFG=3
M  V30 END BOND
M  V30 END CTAB
M  END
$$$$
R-group 371 (1391-1)
     RDKit          3D

  0  0  0  0  0  0  0  0  0  0999 V3000
M  V30 BEGIN CTAB
M  V30 COUNTS 20 19 0 0 1
M  V30 BEGIN ATOM
M  V30 1 C 73.636700 54.959100 42.313800 0
M  V30 2 C 74.995300 55.604800 42.010800 0
M  V30 3 C 74.889700 56.977500 41.318400 0
M  V30 4 C 76.341400 57.483600 41.185400 0
M  V30 5 C 74.004700 57.899700 42.190300 0
M  V30 6 C 74.290600 56.834900 39.897700 0
M  V30 7 H 73.352700 55.243200 43.324700 0
M  V30 8 H 72.872200 55.389300 41.684500 0
M  V30 9 H 75.624400 54.950600 41.414000 0
M  V30 10 H 75.533800 55.705700 42.954400 0
M  V30 11 H 76.472300 58.457900 40.723900 0
M  V30 12 H 76.872300 56.786100 40.543800 0
M  V30 13 H 76.851100 57.518200 42.148600 0
M  V30 14 H 73.015600 57.483400 42.371000 0
M  V30 15 H 74.456100 58.057700 43.170200 0
M  V30 16 H 73.797700 58.857900 41.725200 0
M  V30 17 H 73.241200 56.545600 39.908600 0
M  V30 18 H 74.342600 57.758200 39.324700 0
M  V30 19 H 74.827400 56.084200 39.321000 0
M  V30 20 R 73.547200 53.445400 42.104800 0
M  V30 END ATOM
M  V30 BEGIN BOND
M  V30 1 1 2 1
M  V30 2 1 3 2
M  V30 3 1 4 3
M  V30 4 1 5 3
M  V30 5 1 6 3
M  V30 6 1 7 1
M  V30 7 1 8 1
M  V30 8 1 9 2
M  V30 9 1 10 2
M  V30 10 1 11 4
M  V30 11 1 12 4
M  V30 12 1 13 4
M  V30 13 1 14 5
M  V30 14 1 15 5
M  V30 15 1 16 5
M  V30 16 1 17 6
M  V30 17 1 18 6
M  V30 18 1 19 6
M  V30 19 1 20 1
M  V30 END BOND
M  V30 END CTAB
M  END
$$$$
R-group 372 (10985-2)
     RDKit          3D

  0  0  0  0  0  0  0  0  0  0999 V3000
M  V30 BEGIN CTAB
M  V30 COUNTS 14 14 0 0 1
M  V30 BEGIN ATOM
M  V30 1 C 73.763600 55.269700 41.888400 0 CFG=1
M  V30 2 C 73.588900 56.034600 43.200600 0
M  V30 3 O 74.276800 57.243100 42.924100 0
M  V30 4 C 75.521100 56.850600 42.369500 0
M  V30 5 C 75.092900 55.804000 41.354100 0 CFG=2
M  V30 6 O 74.872200 56.458000 40.124700 0
M  V30 7 H 72.972700 55.664000 41.249800 0
M  V30 8 H 72.543800 56.212300 43.455400 0
M  V30 9 H 74.072800 55.535200 44.037300 0
M  V30 10 H 76.137500 56.402100 43.150800 0
M  V30 11 H 76.094800 57.657900 41.921800 0
M  V30 12 H 75.865400 55.048100 41.239500 0
M  V30 13 H 74.277900 57.177700 40.278100 0
M  V30 14 R 73.579400 53.724100 41.914600 0
M  V30 END ATOM
M  V30 BEGIN BOND
M  V30 1 1 2 1
M  V30 2 1 3 2
M  V30 3 1 4 3
M  V30 4 1 5 1
M  V30 5 1 5 4
M  V30 6 1 6 5
M  V30 7 1 1 7 CFG=3
M  V30 8 1 8 2
M  V30 9 1 9 2
M  V30 10 1 10 4
M  V30 11 1 11 4
M  V30 12 1 5 12 CFG=3
M  V30 13 1 13 6
M  V30 14 1 14 1
M  V30 END BOND
M  V30 END CTAB
M  END
$$$$
R-group 373 (3231-1)
     RDKit          3D

  0  0  0  0  0  0  0  0  0  0999 V3000
M  V30 BEGIN CTAB
M  V30 COUNTS 11 11 0 0 1
M  V30 BEGIN ATOM
M  V30 1 O 73.761000 55.083000 42.136900 0
M  V30 2 C 75.078800 55.496000 41.794300 0
M  V30 3 C 75.177500 56.489700 40.642500 0
M  V30 4 O 76.114500 57.257900 41.414400 0
M  V30 5 C 75.579500 56.676200 42.618900 0
M  V30 6 H 75.852600 54.736500 41.746100 0
M  V30 7 H 75.631100 56.138800 39.729700 0
M  V30 8 H 74.248900 57.030200 40.450600 0
M  V30 9 H 74.784100 57.293900 43.043700 0
M  V30 10 H 76.335900 56.436700 43.360500 0
M  V30 11 R 73.444300 53.711100 41.881400 0
M  V30 END ATOM
M  V30 BEGIN BOND
M  V30 1 1 2 1
M  V30 2 1 3 2
M  V30 3 1 4 3
M  V30 4 1 5 2
M  V30 5 1 5 4
M  V30 6 1 6 2
M  V30 7 1 7 3
M  V30 8 1 8 3
M  V30 9 1 9 5
M  V30 10 1 10 5
M  V30 11 1 11 1
M  V30 END BOND
M  V30 END CTAB
M  END
$$$$
R-group 374 (25435-4)
     RDKit          3D

  0  0  0  0  0  0  0  0  0  0999 V3000
M  V30 BEGIN CTAB
M  V30 COUNTS 19 19 0 0 1
M  V30 BEGIN ATOM
M  V30 1 C 73.656700 54.922500 41.717900 0 CFG=1
M  V30 2 C 73.567800 55.859900 42.926400 0
M  V30 3 C 74.234800 57.172300 42.466900 0
M  V30 4 C 74.938300 56.843400 41.133400 0 CFG=2
M  V30 5 C 76.376100 57.385100 40.998400 0
M  V30 6 O 74.072300 57.202900 40.052700 0
M  V30 7 C 74.994800 55.331100 41.113200 0
M  V30 8 H 72.868000 55.241900 41.039000 0
M  V30 9 H 72.546600 56.008900 43.275500 0
M  V30 10 H 74.138700 55.449800 43.756900 0
M  V30 11 H 73.510200 57.979700 42.349100 0
M  V30 12 H 74.949700 57.500000 43.223300 0
M  V30 13 H 76.966600 57.096900 41.865400 0
M  V30 14 H 76.870400 56.964000 40.126200 0
M  V30 15 H 76.465100 58.458600 40.924300 0
M  V30 16 H 75.808100 54.984500 41.747200 0
M  V30 17 H 75.198200 54.975100 40.112500 0
M  V30 18 H 73.229400 56.805200 40.201100 0
M  V30 19 R 73.456400 53.409200 41.943900 0
M  V30 END ATOM
M  V30 BEGIN BOND
M  V30 1 1 2 1
M  V30 2 1 3 2
M  V30 3 1 4 3
M  V30 4 1 5 4
M  V30 5 1 4 6 CFG=3
M  V30 6 1 7 1
M  V30 7 1 7 4
M  V30 8 1 1 8 CFG=3
M  V30 9 1 9 2
M  V30 10 1 10 2
M  V30 11 1 11 3
M  V30 12 1 12 3
M  V30 13 1 13 5
M  V30 14 1 14 5
M  V30 15 1 15 5
M  V30 16 1 16 7
M  V30 17 1 17 7
M  V30 18 1 18 6
M  V30 19 1 19 1
M  V30 END BOND
M  V30 END CTAB
M  END
$$$$
R-group 375 (41520-2)
     RDKit          3D

  0  0  0  0  0  0  0  0  0  0999 V3000
M  V30 BEGIN CTAB
M  V30 COUNTS 19 19 0 0 1
M  V30 BEGIN ATOM
M  V30 1 C 73.101000 54.328700 41.996600 0
M  V30 2 C 74.429700 55.107200 41.991200 0 CFG=2
M  V30 3 C 74.574900 55.945400 43.253000 0
M  V30 4 C 73.559600 57.052400 43.017700 0
M  V30 5 C 73.632100 57.264700 41.500500 0
M  V30 6 C 74.356500 56.100300 40.861800 0 CFG=1
M  V30 7 O 75.672300 56.457900 40.527700 0
M  V30 8 H 72.410000 54.799400 41.293800 0
M  V30 9 H 72.570100 54.432500 42.924400 0
M  V30 10 H 75.316100 54.488400 41.873900 0
M  V30 11 H 74.396600 55.345300 44.139200 0
M  V30 12 H 75.581500 56.361700 43.334000 0
M  V30 13 H 73.782400 57.957000 43.577300 0
M  V30 14 H 72.571300 56.718500 43.325000 0
M  V30 15 H 74.343500 58.013700 41.327500 0
M  V30 16 H 72.684400 57.530400 41.034000 0
M  V30 17 H 73.856300 55.736300 39.966300 0
M  V30 18 H 76.111000 56.756000 41.307300 0
M  V30 19 R 73.261900 52.845200 41.726300 0
M  V30 END ATOM
M  V30 BEGIN BOND
M  V30 1 1 2 1
M  V30 2 1 3 2
M  V30 3 1 4 3
M  V30 4 1 5 4
M  V30 5 1 6 2
M  V30 6 1 6 5
M  V30 7 1 7 6
M  V30 8 1 8 1
M  V30 9 1 9 1
M  V30 10 1 2 10 CFG=3
M  V30 11 1 11 3
M  V30 12 1 12 3
M  V30 13 1 13 4
M  V30 14 1 14 4
M  V30 15 1 15 5
M  V30 16 1 16 5
M  V30 17 1 6 17 CFG=3
M  V30 18 1 18 7
M  V30 19 1 19 1
M  V30 END BOND
M  V30 END CTAB
M  END
$$$$
R-group 376 (20353-2)
     RDKit          3D

  0  0  0  0  0  0  0  0  0  0999 V3000
M  V30 BEGIN CTAB
M  V30 COUNTS 12 12 0 0 1
M  V30 BEGIN ATOM
M  V30 1 C 73.354200 54.813400 41.847100 0 CFG=2
M  V30 2 C 73.317400 55.740900 40.625000 0
M  V30 3 C 74.590100 55.537500 41.396200 0 CFG=1
M  V30 4 C 75.146500 56.614100 42.262900 0
M  V30 5 F 75.712000 56.057500 43.325100 0
M  V30 6 F 76.071700 57.257900 41.551400 0
M  V30 7 F 74.157300 57.423600 42.651300 0
M  V30 8 H 72.891700 55.200800 42.751000 0
M  V30 9 H 73.284800 55.330100 39.620900 0
M  V30 10 H 72.851400 56.718300 40.721500 0
M  V30 11 H 75.369100 54.937400 40.931500 0
M  V30 12 R 73.334000 53.296300 41.773700 0
M  V30 END ATOM
M  V30 BEGIN BOND
M  V30 1 1 2 1
M  V30 2 1 3 1
M  V30 3 1 3 2
M  V30 4 1 4 3
M  V30 5 1 5 4
M  V30 6 1 6 4
M  V30 7 1 7 4
M  V30 8 1 1 8 CFG=1
M  V30 9 1 9 2
M  V30 10 1 10 2
M  V30 11 1 3 11 CFG=3
M  V30 12 1 12 1
M  V30 END BOND
M  V30 END CTAB
M  END
$$$$
R-group 377 (35689-7)
     RDKit          3D

  0  0  0  0  0  0  0  0  0  0999 V3000
M  V30 BEGIN CTAB
M  V30 COUNTS 16 16 0 0 1
M  V30 BEGIN ATOM
M  V30 1 C 73.665200 54.992600 41.660400 0 CFG=2
M  V30 2 C 75.031000 55.379500 41.098100 0
M  V30 3 C 75.084000 56.880600 41.260300 0 CFG=2
M  V30 4 O 76.435500 57.257800 41.330500 0
M  V30 5 C 74.228800 57.201100 42.504400 0 CFG=1
M  V30 6 F 73.271600 58.053300 42.140800 0
M  V30 7 C 73.577800 55.867700 42.918700 0
M  V30 8 H 72.886400 55.361200 40.984900 0
M  V30 9 H 75.818500 54.911500 41.686900 0
M  V30 10 H 75.197300 55.130800 40.058200 0
M  V30 11 H 74.633500 57.328700 40.377000 0
M  V30 12 H 74.789500 57.658800 43.321900 0
M  V30 13 H 72.559700 55.987000 43.293900 0
M  V30 14 H 74.147500 55.430000 43.730500 0
M  V30 15 H 76.847200 56.775500 42.029900 0
M  V30 16 R 73.436200 53.470500 41.837500 0
M  V30 END ATOM
M  V30 BEGIN BOND
M  V30 1 1 2 1
M  V30 2 1 3 2
M  V30 3 1 4 3
M  V30 4 1 5 3
M  V30 5 1 6 5
M  V30 6 1 7 1
M  V30 7 1 7 5
M  V30 8 1 1 8 CFG=3
M  V30 9 1 9 2
M  V30 10 1 10 2
M  V30 11 1 3 11 CFG=3
M  V30 12 1 5 12 CFG=1
M  V30 13 1 13 7
M  V30 14 1 14 7
M  V30 15 1 15 4
M  V30 16 1 16 1
M  V30 END BOND
M  V30 END CTAB
M  END
$$$$
R-group 378 (44223-2)
     RDKit          3D

  0  0  0  0  0  0  0  0  0  0999 V3000
M  V30 BEGIN CTAB
M  V30 COUNTS 16 16 0 0 1
M  V30 BEGIN ATOM
M  V30 1 C 73.624200 54.957400 41.544600 0 CFG=2
M  V30 2 C 72.872500 55.860600 40.524700 0
M  V30 3 C 74.127700 56.056100 39.706600 0
M  V30 4 C 74.918600 55.449200 40.879500 0 CFG=1
M  V30 5 C 75.672300 56.465700 41.703200 0
M  V30 6 N 76.472300 57.258100 41.016600 0
M  V30 7 O 75.582100 56.529400 42.924400 0
M  V30 8 H 73.467000 55.410400 42.521600 0
M  V30 9 H 72.047200 55.407400 39.980500 0
M  V30 10 H 72.572000 56.836900 40.924800 0
M  V30 11 H 74.135400 55.471900 38.788000 0
M  V30 12 H 74.315300 57.109600 39.482100 0
M  V30 13 H 75.611700 54.663300 40.585400 0
M  V30 14 H 76.563000 57.144300 40.016200 0
M  V30 15 H 77.013400 57.958100 41.499700 0
M  V30 16 R 73.406100 53.435800 41.681000 0
M  V30 END ATOM
M  V30 BEGIN BOND
M  V30 1 1 2 1
M  V30 2 1 3 2
M  V30 3 1 4 1
M  V30 4 1 4 3
M  V30 5 1 5 4
M  V30 6 1 6 5
M  V30 7 2 7 5
M  V30 8 1 1 8 CFG=1
M  V30 9 1 9 2
M  V30 10 1 10 2
M  V30 11 1 11 3
M  V30 12 1 12 3
M  V30 13 1 4 13 CFG=3
M  V30 14 1 14 6
M  V30 15 1 15 6
M  V30 16 1 16 1
M  V30 END BOND
M  V30 END CTAB
M  END
$$$$
R-group 379 (10985-3)
     RDKit          3D

  0  0  0  0  0  0  0  0  0  0999 V3000
M  V30 BEGIN CTAB
M  V30 COUNTS 14 14 0 0 1
M  V30 BEGIN ATOM
M  V30 1 C 74.055500 55.379500 41.700000 0 CFG=2
M  V30 2 C 75.378000 55.704700 40.990100 0
M  V30 3 O 75.914400 56.839500 41.649300 0
M  V30 4 C 75.594600 56.716700 43.021900 0
M  V30 5 C 74.154800 56.209800 42.985200 0 CFG=1
M  V30 6 O 73.316700 57.346600 42.924000 0
M  V30 7 H 73.262800 55.822000 41.097800 0
M  V30 8 H 76.072100 54.880000 41.079500 0
M  V30 9 H 75.242500 55.924900 39.931400 0
M  V30 10 H 75.713200 57.657900 43.560800 0
M  V30 11 H 76.250500 55.979500 43.485100 0
M  V30 12 H 73.907200 55.657900 43.883900 0
M  V30 13 H 73.627600 57.896200 42.220200 0
M  V30 14 R 73.700900 53.857300 41.856000 0
M  V30 END ATOM
M  V30 BEGIN BOND
M  V30 1 1 2 1
M  V30 2 1 3 2
M  V30 3 1 4 3
M  V30 4 1 5 1
M  V30 5 1 5 4
M  V30 6 1 6 5
M  V30 7 1 1 7 CFG=3
M  V30 8 1 8 2
M  V30 9 1 9 2
M  V30 10 1 10 4
M  V30 11 1 11 4
M  V30 12 1 5 12 CFG=1
M  V30 13 1 13 6
M  V30 14 1 14 1
M  V30 END BOND
M  V30 END CTAB
M  END
$$$$
R-group 380 (10715-2)
     RDKit          3D

  0  0  0  0  0  0  0  0  0  0999 V3000
M  V30 BEGIN CTAB
M  V30 COUNTS 14 13 0 0 1
M  V30 BEGIN ATOM
M  V30 1 C 73.287300 54.859300 42.078300 0
M  V30 2 C 74.457100 55.834000 42.357300 0 CFG=2
M  V30 3 C 73.885900 57.146400 42.926000 0
M  V30 4 C 75.308900 56.128500 41.107100 0
M  V30 5 F 76.218400 57.071300 41.343000 0
M  V30 6 H 72.605200 54.832900 42.924000 0
M  V30 7 H 72.717200 55.257900 41.249700 0
M  V30 8 H 75.105700 55.401900 43.120000 0
M  V30 9 H 73.354200 57.717300 42.163600 0
M  V30 10 H 73.187800 56.957800 43.738800 0
M  V30 11 H 74.678200 57.777300 43.325300 0
M  V30 12 H 74.700300 56.486900 40.278300 0
M  V30 13 H 75.861200 55.252400 40.775600 0
M  V30 14 R 73.570100 53.416300 41.638400 0
M  V30 END ATOM
M  V30 BEGIN BOND
M  V30 1 1 2 1
M  V30 2 1 3 2
M  V30 3 1 4 2
M  V30 4 1 5 4
M  V30 5 1 6 1
M  V30 6 1 7 1
M  V30 7 1 2 8 CFG=1
M  V30 8 1 9 3
M  V30 9 1 10 3
M  V30 10 1 11 3
M  V30 11 1 12 4
M  V30 12 1 13 4
M  V30 13 1 14 1
M  V30 END BOND
M  V30 END CTAB
M  END
$$$$
R-group 381 (6750-1)
     RDKit          3D

  0  0  0  0  0  0  0  0  0  0999 V3000
M  V30 BEGIN CTAB
M  V30 COUNTS 8 8 0 0 1
M  V30 BEGIN ATOM
M  V30 1 C 73.937400 54.800700 41.831500 0
M  V30 2 C 74.473400 55.527900 42.850600 0
M  V30 3 C 74.515200 56.900200 42.524800 0
M  V30 4 N 74.072700 57.257000 41.344400 0
M  V30 5 S 73.672500 55.885100 40.492700 0
M  V30 6 H 74.770100 55.168800 43.821400 0
M  V30 7 H 74.855000 57.670500 43.197600 0
M  V30 8 R 73.598900 53.347200 41.809100 0
M  V30 END ATOM
M  V30 BEGIN BOND
M  V30 1 2 2 1
M  V30 2 1 3 2
M  V30 3 2 4 3
M  V30 4 1 5 1
M  V30 5 1 5 4
M  V30 6 1 6 2
M  V30 7 1 7 3
M  V30 8 1 8 1
M  V30 END BOND
M  V30 END CTAB
M  END
$$$$
R-group 382 (6708-1)
     RDKit          3D

  0  0  0  0  0  0  0  0  0  0999 V3000
M  V30 BEGIN CTAB
M  V30 COUNTS 14 14 0 0 1
M  V30 BEGIN ATOM
M  V30 1 C 72.664000 54.250700 42.032500 0
M  V30 2 C 73.672600 55.355300 41.821900 0
M  V30 3 N 74.590500 55.530500 42.797200 0
M  V30 4 C 75.662400 56.297200 42.530800 0
M  V30 5 C 75.886300 56.864900 41.272300 0
M  V30 6 C 74.870800 56.784900 40.303800 0
M  V30 7 C 73.732100 56.027200 40.582400 0
M  V30 8 F 72.760200 55.892400 39.650400 0
M  V30 9 H 71.798700 54.454400 41.404800 0
M  V30 10 H 72.256700 54.242200 43.026800 0
M  V30 11 H 76.391500 56.389300 43.319200 0
M  V30 12 H 76.785200 57.432400 41.077300 0
M  V30 13 H 74.975600 57.265900 39.342300 0
M  V30 14 R 73.247700 52.876800 41.657600 0
M  V30 END ATOM
M  V30 BEGIN BOND
M  V30 1 1 2 1
M  V30 2 2 3 2
M  V30 3 1 4 3
M  V30 4 2 5 4
M  V30 5 1 6 5
M  V30 6 1 7 2
M  V30 7 2 7 6
M  V30 8 1 8 7
M  V30 9 1 9 1
M  V30 10 1 10 1
M  V30 11 1 11 4
M  V30 12 1 12 5
M  V30 13 1 13 6
M  V30 14 1 14 1
M  V30 END BOND
M  V30 END CTAB
M  END
$$$$
R-group 383 (18507-2)
     RDKit          3D

  0  0  0  0  0  0  0  0  0  0999 V3000
M  V30 BEGIN CTAB
M  V30 COUNTS 12 12 0 0 1
M  V30 BEGIN ATOM
M  V30 1 C 73.283600 54.848900 41.922500 0
M  V30 2 C 74.387800 55.859700 41.647200 0 CFG=1
M  V30 3 C 74.279900 57.195300 42.352200 0
M  V30 4 C 75.446700 56.292600 42.628500 0
M  V30 5 F 75.517500 55.659800 43.856100 0
M  V30 6 F 76.672500 56.680700 42.123000 0
M  V30 7 H 72.476400 55.101600 41.241800 0
M  V30 8 H 72.900900 54.967900 42.925500 0
M  V30 9 H 74.682500 55.918900 40.603000 0
M  V30 10 H 74.429500 58.063200 41.723900 0
M  V30 11 H 73.531200 57.306700 43.133000 0
M  V30 12 R 73.570100 53.387100 41.595800 0
M  V30 END ATOM
M  V30 BEGIN BOND
M  V30 1 1 2 1
M  V30 2 1 3 2
M  V30 3 1 4 2
M  V30 4 1 4 3
M  V30 5 1 5 4
M  V30 6 1 6 4
M  V30 7 1 7 1
M  V30 8 1 8 1
M  V30 9 1 2 9 CFG=3
M  V30 10 1 10 3
M  V30 11 1 11 3
M  V30 12 1 12 1
M  V30 END BOND
M  V30 END CTAB
M  END
$$$$
R-group 384 (27615-4)
     RDKit          3D

  0  0  0  0  0  0  0  0  0  0999 V3000
M  V30 BEGIN CTAB
M  V30 COUNTS 23 23 0 0 1
M  V30 BEGIN ATOM
M  V30 1 C 73.763900 54.899700 41.424700 0
M  V30 2 O 73.063200 55.306000 40.253500 0
M  V30 3 C 73.262300 55.657500 42.674900 0
M  V30 4 C 73.531200 57.171700 42.703400 0 CFG=2
M  V30 5 C 72.737200 58.154300 41.807900 0
M  V30 6 O 74.913200 57.257900 42.447300 0
M  V30 7 C 75.342800 56.829800 41.168100 0 CFG=1
M  V30 8 C 76.776400 57.298700 41.053200 0
M  V30 9 C 75.231000 55.307600 41.187100 0
M  V30 10 H 72.239100 55.389900 42.927000 0
M  V30 11 H 73.839300 55.275100 43.510100 0
M  V30 12 H 73.389200 57.517600 43.726000 0
M  V30 13 H 71.777000 58.458300 42.225000 0
M  V30 14 H 73.272100 59.096900 41.725500 0
M  V30 15 H 72.575500 57.780600 40.798100 0
M  V30 16 H 74.761400 57.258500 40.354300 0
M  V30 17 H 77.255600 56.965700 40.135100 0
M  V30 18 H 76.863900 58.381900 41.111600 0
M  V30 19 H 77.272500 56.868100 41.908700 0
M  V30 20 H 75.851400 54.942900 42.001200 0
M  V30 21 H 75.655600 54.902300 40.274000 0
M  V30 22 H 73.332400 54.742300 39.545200 0
M  V30 23 R 73.517500 53.372700 41.653500 0
M  V30 END ATOM
M  V30 BEGIN BOND
M  V30 1 1 2 1
M  V30 2 1 3 1
M  V30 3 1 4 3
M  V30 4 1 5 4
M  V30 5 1 6 4
M  V30 6 1 7 6
M  V30 7 1 8 7
M  V30 8 1 9 1
M  V30 9 1 9 7
M  V30 10 1 10 3
M  V30 11 1 11 3
M  V30 12 1 4 12 CFG=1
M  V30 13 1 13 5
M  V30 14 1 14 5
M  V30 15 1 15 5
M  V30 16 1 7 16 CFG=3
M  V30 17 1 17 8
M  V30 18 1 18 8
M  V30 19 1 19 8
M  V30 20 1 20 9
M  V30 21 1 21 9
M  V30 22 1 22 2
M  V30 23 1 23 1
M  V30 END BOND
M  V30 END CTAB
M  END
$$$$
R-group 385 (13090-1)
     RDKit          3D

  0  0  0  0  0  0  0  0  0  0999 V3000
M  V30 BEGIN CTAB
M  V30 COUNTS 13 13 0 0 1
M  V30 BEGIN ATOM
M  V30 1 C 73.777700 54.624700 41.637400 0
M  V30 2 C 73.443100 55.360100 40.470300 0
M  V30 3 C 73.672300 56.735000 40.520000 0
M  V30 4 C 73.502700 57.627600 39.327500 0
M  V30 5 C 74.134000 57.259400 41.724700 0
M  V30 6 N 74.547700 56.516400 42.752200 0
M  V30 7 N 74.386200 55.208800 42.698900 0
M  V30 8 H 73.025200 54.928000 39.575800 0
M  V30 9 H 73.268700 58.642400 39.634600 0
M  V30 10 H 74.473400 57.650800 38.844500 0
M  V30 11 H 72.759100 57.246200 38.631100 0
M  V30 12 H 74.237600 58.316900 41.819600 0
M  V30 13 R 73.503000 53.143300 41.780600 0
M  V30 END ATOM
M  V30 BEGIN BOND
M  V30 1 2 2 1
M  V30 2 1 3 2
M  V30 3 1 4 3
M  V30 4 2 5 3
M  V30 5 1 6 5
M  V30 6 1 7 1
M  V30 7 2 7 6
M  V30 8 1 8 2
M  V30 9 1 9 4
M  V30 10 1 10 4
M  V30 11 1 11 4
M  V30 12 1 12 5
M  V30 13 1 13 1
M  V30 END BOND
M  V30 END CTAB
M  END
$$$$
R-group 386 (8777-1)
     RDKit          3D

  0  0  0  0  0  0  0  0  0  0999 V3000
M  V30 BEGIN CTAB
M  V30 COUNTS 7 7 0 0 1
M  V30 BEGIN ATOM
M  V30 1 C 73.780900 54.851900 41.622800 0
M  V30 2 C 74.072700 55.657300 42.678300 0
M  V30 3 S 74.072200 57.257900 42.124700 0
M  V30 4 N 73.803600 56.854100 40.530700 0
M  V30 5 N 73.670500 55.571100 40.413100 0
M  V30 6 H 74.189300 55.424000 43.725300 0
M  V30 7 R 73.532900 53.371600 41.690100 0
M  V30 END ATOM
M  V30 BEGIN BOND
M  V30 1 2 2 1
M  V30 2 1 3 2
M  V30 3 1 4 3
M  V30 4 1 5 1
M  V30 5 2 5 4
M  V30 6 1 6 2
M  V30 7 1 7 1
M  V30 END BOND
M  V30 END CTAB
M  END
$$$$
R-group 387 (19768-1)
     RDKit          3D

  0  0  0  0  0  0  0  0  0  0999 V3000
M  V30 BEGIN CTAB
M  V30 COUNTS 14 14 0 0 1
M  V30 BEGIN ATOM
M  V30 1 C 73.931100 55.066600 41.718900 0
M  V30 2 C 74.556100 55.738400 42.704000 0
M  V30 3 C 74.656300 57.245900 42.705700 0
M  V30 4 C 73.549600 57.820500 41.820700 0
M  V30 5 O 73.669500 57.235700 40.541500 0
M  V30 6 C 73.371100 55.847800 40.518100 0
M  V30 7 H 74.968400 55.244700 43.567200 0
M  V30 8 H 74.547700 57.655900 43.708400 0
M  V30 9 H 75.650100 57.516100 42.342800 0
M  V30 10 H 72.554100 57.657100 42.230600 0
M  V30 11 H 73.669200 58.883700 41.728200 0
M  V30 12 H 73.778300 55.489300 39.576800 0
M  V30 13 H 72.299200 55.703600 40.436500 0
M  V30 14 R 73.652300 53.553000 41.753000 0
M  V30 END ATOM
M  V30 BEGIN BOND
M  V30 1 2 2 1
M  V30 2 1 3 2
M  V30 3 1 4 3
M  V30 4 1 5 4
M  V30 5 1 6 1
M  V30 6 1 6 5
M  V30 7 1 7 2
M  V30 8 1 8 3
M  V30 9 1 9 3
M  V30 10 1 10 4
M  V30 11 1 11 4
M  V30 12 1 12 6
M  V30 13 1 13 6
M  V30 14 1 14 1
M  V30 END BOND
M  V30 END CTAB
M  END
$$$$
R-group 388 (11627-2)
     RDKit          3D

  0  0  0  0  0  0  0  0  0  0999 V3000
M  V30 BEGIN CTAB
M  V30 COUNTS 20 20 0 0 1
M  V30 BEGIN ATOM
M  V30 1 O 73.907600 54.891500 42.073300 0
M  V30 2 C 73.545300 55.695400 43.176400 0
M  V30 3 C 73.988800 57.136900 42.927600 0 CFG=2
M  V30 4 C 73.267300 57.817400 41.756200 0
M  V30 5 C 73.672100 57.197100 40.451400 0
M  V30 6 C 74.945000 56.824900 40.279000 0
M  V30 7 C 76.034900 56.959100 41.344600 0
M  V30 8 C 75.529500 57.152000 42.802900 0
M  V30 9 H 72.465600 55.659400 43.316700 0
M  V30 10 H 74.072200 55.333300 44.062600 0
M  V30 11 H 73.673800 57.719500 43.783200 0
M  V30 12 H 72.193400 57.835900 41.870900 0
M  V30 13 H 73.558800 58.859200 41.724500 0
M  V30 14 H 72.948800 57.135100 39.651600 0
M  V30 15 H 75.257700 56.451100 39.320400 0
M  V30 16 H 76.619900 56.042500 41.300400 0
M  V30 17 H 76.705500 57.772700 41.064400 0
M  V30 18 H 75.961600 58.010100 43.324900 0
M  V30 19 H 75.944700 56.332700 43.391800 0
M  V30 20 R 73.571900 53.526700 42.143400 0
M  V30 END ATOM
M  V30 BEGIN BOND
M  V30 1 1 2 1
M  V30 2 1 3 2
M  V30 3 1 4 3
M  V30 4 1 5 4
M  V30 5 2 6 5
M  V30 6 1 7 6
M  V30 7 1 8 3
M  V30 8 1 8 7
M  V30 9 1 9 2
M  V30 10 1 10 2
M  V30 11 1 3 11 CFG=1
M  V30 12 1 12 4
M  V30 13 1 13 4
M  V30 14 1 14 5
M  V30 15 1 15 6
M  V30 16 1 16 7
M  V30 17 1 17 7
M  V30 18 1 18 8
M  V30 19 1 19 8
M  V30 20 1 20 1
M  V30 END BOND
M  V30 END CTAB
M  END
$$$$
R-group 389 (19769-1)
     RDKit          3D

  0  0  0  0  0  0  0  0  0  0999 V3000
M  V30 BEGIN CTAB
M  V30 COUNTS 20 20 0 0 1
M  V30 BEGIN ATOM
M  V30 1 C 73.709100 54.846100 41.716500 0
M  V30 2 C 74.365400 55.592900 40.816500 0
M  V30 3 C 74.603100 57.049600 41.077400 0
M  V30 4 C 73.536600 57.832600 40.255800 0
M  V30 5 C 76.072600 57.399200 40.781300 0
M  V30 6 O 74.513900 57.258200 42.476500 0
M  V30 7 C 73.250900 57.006400 43.018100 0
M  V30 8 C 73.142600 55.502400 42.948100 0
M  V30 9 H 74.803700 55.222100 39.913500 0
M  V30 10 H 73.859000 57.973900 39.222600 0
M  V30 11 H 72.595100 57.282400 40.204300 0
M  V30 12 H 73.272200 58.814800 40.675000 0
M  V30 13 H 76.226600 57.534500 39.725300 0
M  V30 14 H 76.435600 58.305700 41.266300 0
M  V30 15 H 76.738300 56.605500 41.117000 0
M  V30 16 H 72.472500 57.541400 42.484400 0
M  V30 17 H 73.197100 57.345200 44.053600 0
M  V30 18 H 72.122800 55.185200 43.168900 0
M  V30 19 H 73.825900 55.194000 43.725000 0
M  V30 20 R 73.499800 53.345500 41.652500 0
M  V30 END ATOM
M  V30 BEGIN BOND
M  V30 1 2 2 1
M  V30 2 1 3 2
M  V30 3 1 4 3
M  V30 4 1 5 3
M  V30 5 1 6 3
M  V30 6 1 7 6
M  V30 7 1 8 1
M  V30 8 1 8 7
M  V30 9 1 9 2
M  V30 10 1 10 4
M  V30 11 1 11 4
M  V30 12 1 12 4
M  V30 13 1 13 5
M  V30 14 1 14 5
M  V30 15 1 15 5
M  V30 16 1 16 7
M  V30 17 1 17 7
M  V30 18 1 18 8
M  V30 19 1 19 8
M  V30 20 1 20 1
M  V30 END BOND
M  V30 END CTAB
M  END
$$$$
R-group 390 (28054-4)
     RDKit          3D

  0  0  0  0  0  0  0  0  0  0999 V3000
M  V30 BEGIN CTAB
M  V30 COUNTS 19 19 0 0 1
M  V30 BEGIN ATOM
M  V30 1 C 73.683400 54.879100 41.350800 0 CFG=2
M  V30 2 C 73.419000 55.779100 42.558100 0
M  V30 3 C 73.289900 57.195700 41.983100 0
M  V30 4 C 73.052900 57.032900 40.473100 0
M  V30 5 C 72.855000 55.529400 40.201900 0 CFG=2
M  V30 6 C 71.341300 55.135300 40.121300 0
M  V30 7 O 70.995300 54.541000 38.888100 0
M  V30 8 H 74.731900 55.034600 41.085600 0
M  V30 9 H 72.482400 55.495000 43.033300 0
M  V30 10 H 74.202800 55.711100 43.312200 0
M  V30 11 H 72.474600 57.741700 42.458600 0
M  V30 12 H 74.202500 57.765600 42.160800 0
M  V30 13 H 73.943700 57.371000 39.940100 0
M  V30 14 H 72.230100 57.658400 40.124400 0
M  V30 15 H 73.316500 55.296400 39.241700 0
M  V30 16 H 71.035400 54.458400 40.923400 0
M  V30 17 H 70.702600 56.017100 40.123400 0
M  V30 18 H 70.086100 54.286300 38.921300 0
M  V30 19 R 73.502800 53.354200 41.605500 0
M  V30 END ATOM
M  V30 BEGIN BOND
M  V30 1 1 2 1
M  V30 2 1 3 2
M  V30 3 1 4 3
M  V30 4 1 5 1
M  V30 5 1 5 4
M  V30 6 1 6 5
M  V30 7 1 7 6
M  V30 8 1 1 8 CFG=3
M  V30 9 1 9 2
M  V30 10 1 10 2
M  V30 11 1 11 3
M  V30 12 1 12 3
M  V30 13 1 13 4
M  V30 14 1 14 4
M  V30 15 1 5 15 CFG=3
M  V30 16 1 16 6
M  V30 17 1 17 6
M  V30 18 1 18 7
M  V30 19 1 19 1
M  V30 END BOND
M  V30 END CTAB
M  END
$$$$
R-group 391 (11385-1)
     RDKit          3D

  0  0  0  0  0  0  0  0  0  0999 V3000
M  V30 BEGIN CTAB
M  V30 COUNTS 11 11 0 0 1
M  V30 BEGIN ATOM
M  V30 1 C 72.904200 54.460900 41.958400 0
M  V30 2 N 73.986800 55.426000 41.896500 0
M  V30 3 N 74.213300 56.197000 40.798200 0
M  V30 4 C 75.288500 56.858700 41.135600 0
M  V30 5 C 75.666800 56.498700 42.450000 0
M  V30 6 N 74.845300 55.603700 42.922200 0
M  V30 7 H 72.128400 54.740400 41.241600 0
M  V30 8 H 72.425900 54.496300 42.924300 0
M  V30 9 H 75.771900 57.551200 40.462800 0
M  V30 10 H 76.472200 56.882000 43.057100 0
M  V30 11 R 73.351300 53.046800 41.582400 0
M  V30 END ATOM
M  V30 BEGIN BOND
M  V30 1 1 2 1
M  V30 2 1 3 2
M  V30 3 2 4 3
M  V30 4 1 5 4
M  V30 5 1 6 2
M  V30 6 2 6 5
M  V30 7 1 7 1
M  V30 8 1 8 1
M  V30 9 1 9 4
M  V30 10 1 10 5
M  V30 11 1 11 1
M  V30 END BOND
M  V30 END CTAB
M  END
$$$$
R-group 392 (28911-1)
     RDKit          3D

  0  0  0  0  0  0  0  0  0  0999 V3000
M  V30 BEGIN CTAB
M  V30 COUNTS 22 23 0 0 1
M  V30 BEGIN ATOM
M  V30 1 C 74.185100 55.521000 41.758400 0 CFG=2
M  V30 2 C 73.303300 56.524700 40.950500 0
M  V30 3 C 73.000000 57.690600 41.897000 0
M  V30 4 C 73.114600 57.097100 43.295700 0
M  V30 5 C 74.300400 56.156200 43.174600 0 CFG=2
M  V30 6 C 75.672200 56.855900 43.269600 0
M  V30 7 C 76.195400 56.911800 41.842000 0
M  V30 8 C 75.590400 55.677900 41.201800 0
M  V30 9 H 73.812900 56.921200 40.071000 0
M  V30 10 H 72.414200 56.085400 40.524700 0
M  V30 11 H 72.072200 58.203300 41.693400 0
M  V30 12 H 73.762500 58.457600 41.781900 0
M  V30 13 H 72.266100 56.464600 43.569400 0
M  V30 14 H 73.221800 57.860300 44.064400 0
M  V30 15 H 74.225200 55.441600 43.985400 0
M  V30 16 H 75.629000 57.844300 43.724800 0
M  V30 17 H 76.344100 56.247900 43.877000 0
M  V30 18 H 75.844500 57.801100 41.324700 0
M  V30 19 H 77.272200 56.932100 41.766800 0
M  V30 20 H 76.072200 54.797300 41.540200 0
M  V30 21 H 75.668300 55.718900 40.121800 0
M  V30 22 R 73.695500 54.001600 41.819000 0
M  V30 END ATOM
M  V30 BEGIN BOND
M  V30 1 1 2 1
M  V30 2 1 3 2
M  V30 3 1 4 3
M  V30 4 1 5 1
M  V30 5 1 5 4
M  V30 6 1 6 5
M  V30 7 1 7 6
M  V30 8 1 8 1
M  V30 9 1 8 7
M  V30 10 1 9 2
M  V30 11 1 10 2
M  V30 12 1 11 3
M  V30 13 1 12 3
M  V30 14 1 13 4
M  V30 15 1 14 4
M  V30 16 1 5 15 CFG=1
M  V30 17 1 16 6
M  V30 18 1 17 6
M  V30 19 1 18 7
M  V30 20 1 19 7
M  V30 21 1 20 8
M  V30 22 1 21 8
M  V30 23 1 1 22 CFG=1
M  V30 END BOND
M  V30 END CTAB
M  END
$$$$
R-group 393 (10912-1)
     RDKit          3D

  0  0  0  0  0  0  0  0  0  0999 V3000
M  V30 BEGIN CTAB
M  V30 COUNTS 17 17 0 0 1
M  V30 BEGIN ATOM
M  V30 1 C 72.663800 54.221500 41.942500 0
M  V30 2 C 73.692500 55.296300 41.703900 0
M  V30 3 C 73.984900 55.745600 40.475100 0
M  V30 4 C 75.069000 56.756900 40.230000 0
M  V30 5 O 75.911900 56.919400 41.368600 0
M  V30 6 C 75.179100 57.132200 42.568800 0
M  V30 7 C 74.424100 55.844800 42.920000 0
M  V30 8 H 71.819600 54.417800 41.276900 0
M  V30 9 H 72.239000 54.318300 42.926800 0
M  V30 10 H 73.441600 55.417900 39.602100 0
M  V30 11 H 75.671000 56.456700 39.382500 0
M  V30 12 H 74.551000 57.657700 39.937100 0
M  V30 13 H 74.470600 57.951600 42.438400 0
M  V30 14 H 75.863800 57.405400 43.371400 0
M  V30 15 H 73.708600 56.040400 43.720000 0
M  V30 16 H 75.131000 55.100100 43.282600 0
M  V30 17 R 73.194100 52.803300 41.688200 0
M  V30 END ATOM
M  V30 BEGIN BOND
M  V30 1 1 2 1
M  V30 2 2 3 2
M  V30 3 1 4 3
M  V30 4 1 5 4
M  V30 5 1 6 5
M  V30 6 1 7 2
M  V30 7 1 7 6
M  V30 8 1 8 1
M  V30 9 1 9 1
M  V30 10 1 10 3
M  V30 11 1 11 4
M  V30 12 1 12 4
M  V30 13 1 13 6
M  V30 14 1 14 6
M  V30 15 1 15 7
M  V30 16 1 16 7
M  V30 17 1 17 1
M  V30 END BOND
M  V30 END CTAB
M  END
$$$$
R-group 394 (761-1)
     RDKit          3D

  0  0  0  0  0  0  0  0  0  0999 V3000
M  V30 BEGIN CTAB
M  V30 COUNTS 13 13 0 0 1
M  V30 BEGIN ATOM
M  V30 1 C 73.937800 55.262500 41.846100 0 CFG=1
M  V30 2 C 73.762800 56.057600 43.139700 0
M  V30 3 C 74.606200 57.274500 42.842200 0
M  V30 4 C 75.792500 56.641600 42.130900 0
M  V30 5 O 75.253900 55.557200 41.385700 0
M  V30 6 H 73.269400 55.723100 41.118000 0
M  V30 7 H 72.722300 56.295000 43.360300 0
M  V30 8 H 74.176300 55.527200 43.992700 0
M  V30 9 H 74.907200 57.839400 43.723900 0
M  V30 10 H 74.072600 57.949300 42.170700 0
M  V30 11 H 76.472300 56.228300 42.872800 0
M  V30 12 H 76.343500 57.341100 41.501900 0
M  V30 13 R 73.643900 53.739100 41.902900 0
M  V30 END ATOM
M  V30 BEGIN BOND
M  V30 1 1 2 1
M  V30 2 1 3 2
M  V30 3 1 4 3
M  V30 4 1 5 1
M  V30 5 1 5 4
M  V30 6 1 1 6 CFG=3
M  V30 7 1 7 2
M  V30 8 1 8 2
M  V30 9 1 9 3
M  V30 10 1 10 3
M  V30 11 1 11 4
M  V30 12 1 12 4
M  V30 13 1 13 1
M  V30 END BOND
M  V30 END CTAB
M  END
$$$$
R-group 395 (21679-1)
     RDKit          3D

  0  0  0  0  0  0  0  0  0  0999 V3000
M  V30 BEGIN CTAB
M  V30 COUNTS 15 15 0 0 1
M  V30 BEGIN ATOM
M  V30 1 C 72.647900 54.202600 42.098300 0
M  V30 2 C 73.672400 55.303000 41.920300 0
M  V30 3 C 74.610300 55.604100 42.924000 0
M  V30 4 C 75.672300 56.456800 42.623300 0
M  V30 5 C 75.812400 56.971100 41.325000 0
M  V30 6 C 74.787800 56.796800 40.386500 0
M  V30 7 F 74.863900 57.406700 39.185600 0
M  V30 8 C 73.692500 55.996200 40.691700 0
M  V30 9 F 72.714900 55.816200 39.769000 0
M  V30 10 H 71.750300 54.448400 41.527400 0
M  V30 11 H 72.261700 54.103300 43.102100 0
M  V30 12 H 74.539200 55.145100 43.908900 0
M  V30 13 H 76.414600 56.675700 43.375300 0
M  V30 14 H 76.661300 57.601000 41.083600 0
M  V30 15 R 73.218600 52.866700 41.608500 0
M  V30 END ATOM
M  V30 BEGIN BOND
M  V30 1 1 2 1
M  V30 2 2 3 2
M  V30 3 1 4 3
M  V30 4 2 5 4
M  V30 5 1 6 5
M  V30 6 1 7 6
M  V30 7 1 8 2
M  V30 8 2 8 6
M  V30 9 1 9 8
M  V30 10 1 10 1
M  V30 11 1 11 1
M  V30 12 1 12 3
M  V30 13 1 13 4
M  V30 14 1 14 5
M  V30 15 1 15 1
M  V30 END BOND
M  V30 END CTAB
M  END
$$$$
R-group 396 (2325-1)
     RDKit          3D

  0  0  0  0  0  0  0  0  0  0999 V3000
M  V30 BEGIN CTAB
M  V30 COUNTS 16 16 0 0 1
M  V30 BEGIN ATOM
M  V30 1 C 73.252600 54.846900 42.216400 0
M  V30 2 C 74.373700 55.730500 42.783000 0 CFG=1
M  V30 3 C 75.578200 55.961400 41.865200 0
M  V30 4 C 75.279000 57.258000 41.125700 0
M  V30 5 C 73.930300 57.718200 41.689500 0
M  V30 6 O 73.822800 57.033500 42.924700 0
M  V30 7 H 72.872300 55.375900 41.355300 0
M  V30 8 H 72.427000 54.805900 42.924300 0
M  V30 9 H 74.687300 55.359000 43.757100 0
M  V30 10 H 76.472400 56.081100 42.473400 0
M  V30 11 H 75.772700 55.133800 41.188300 0
M  V30 12 H 76.069300 57.982300 41.324500 0
M  V30 13 H 75.230700 57.116300 40.045100 0
M  V30 14 H 73.831800 58.788800 41.848600 0
M  V30 15 H 73.116800 57.446200 41.017200 0
M  V30 16 R 73.556300 53.431600 41.699700 0
M  V30 END ATOM
M  V30 BEGIN BOND
M  V30 1 1 2 1
M  V30 2 1 3 2
M  V30 3 1 4 3
M  V30 4 1 5 4
M  V30 5 1 6 2
M  V30 6 1 6 5
M  V30 7 1 7 1
M  V30 8 1 8 1
M  V30 9 1 2 9 CFG=1
M  V30 10 1 10 3
M  V30 11 1 11 3
M  V30 12 1 12 4
M  V30 13 1 13 4
M  V30 14 1 14 5
M  V30 15 1 15 5
M  V30 16 1 16 1
M  V30 END BOND
M  V30 END CTAB
M  END
$$$$
R-group 397 (40523-1)
     RDKit          3D

  0  0  0  0  0  0  0  0  0  0999 V3000
M  V30 BEGIN CTAB
M  V30 COUNTS 17 16 0 0 1
M  V30 BEGIN ATOM
M  V30 1 C 73.535000 54.926400 42.156500 0
M  V30 2 C 74.947400 55.525500 42.051200 0
M  V30 3 C 74.931000 56.939200 41.467300 0
M  V30 4 C 74.068400 57.877900 42.319900 0
M  V30 5 C 76.367700 57.442700 41.306500 0
M  V30 6 F 74.401500 56.856900 40.244100 0
M  V30 7 H 73.127100 55.216800 43.122000 0
M  V30 8 H 72.873300 55.396300 41.432800 0
M  V30 9 H 75.595200 54.905700 41.436100 0
M  V30 10 H 75.412300 55.530200 43.037900 0
M  V30 11 H 74.473300 58.004200 43.324000 0
M  V30 12 H 73.040400 57.530500 42.417000 0
M  V30 13 H 74.014400 58.849500 41.851100 0
M  V30 14 H 76.876100 57.414200 42.267200 0
M  V30 15 H 76.872400 56.787900 40.603100 0
M  V30 16 H 76.471200 58.456100 40.921000 0
M  V30 17 R 73.435700 53.407700 41.944800 0
M  V30 END ATOM
M  V30 BEGIN BOND
M  V30 1 1 2 1
M  V30 2 1 3 2
M  V30 3 1 4 3
M  V30 4 1 5 3
M  V30 5 1 6 3
M  V30 6 1 7 1
M  V30 7 1 8 1
M  V30 8 1 9 2
M  V30 9 1 10 2
M  V30 10 1 11 4
M  V30 11 1 12 4
M  V30 12 1 13 4
M  V30 13 1 14 5
M  V30 14 1 15 5
M  V30 15 1 16 5
M  V30 16 1 17 1
M  V30 END BOND
M  V30 END CTAB
M  END
$$$$
R-group 398 (17748-2)
     RDKit          3D

  0  0  0  0  0  0  0  0  0  0999 V3000
M  V30 BEGIN CTAB
M  V30 COUNTS 11 11 0 0 1
M  V30 BEGIN ATOM
M  V30 1 N 73.909900 54.729000 41.728100 0
M  V30 2 C 74.411600 55.583000 42.694700 0
M  V30 3 C 74.272100 56.857800 42.229500 0
M  V30 4 C 73.706900 56.654000 40.953000 0
M  V30 5 N 73.272200 57.657800 40.124900 0
M  V30 6 N 73.555900 55.408300 40.615200 0
M  V30 7 H 74.737300 55.235200 43.665700 0
M  V30 8 H 74.474400 57.778000 42.756800 0
M  V30 9 H 73.519600 58.612800 40.340300 0
M  V30 10 H 73.131500 57.458000 39.141900 0
M  V30 11 R 73.585600 53.310400 41.829800 0
M  V30 END ATOM
M  V30 BEGIN BOND
M  V30 1 1 2 1
M  V30 2 2 3 2
M  V30 3 1 4 3
M  V30 4 1 5 4
M  V30 5 1 6 1
M  V30 6 2 6 4
M  V30 7 1 7 2
M  V30 8 1 8 3
M  V30 9 1 9 5
M  V30 10 1 10 5
M  V30 11 1 11 1
M  V30 END BOND
M  V30 END CTAB
M  END
$$$$
R-group 399 (3282-1)
     RDKit          3D

  0  0  0  0  0  0  0  0  0  0999 V3000
M  V30 BEGIN CTAB
M  V30 COUNTS 12 12 0 0 1
M  V30 BEGIN ATOM
M  V30 1 C 74.071900 54.821000 41.735100 0
M  V30 2 N 74.711400 55.532600 42.667100 0
M  V30 3 C 74.621100 56.858000 42.299600 0
M  V30 4 C 73.897100 56.858700 41.130100 0
M  V30 5 C 73.216200 57.964000 40.402000 0
M  V30 6 N 73.670600 55.567300 40.719100 0
M  V30 7 H 74.966800 57.655200 42.937300 0
M  V30 8 H 73.165400 58.854600 41.023700 0
M  V30 9 H 73.671700 58.193200 39.442600 0
M  V30 10 H 72.190000 57.671900 40.188200 0
M  V30 11 H 75.072700 55.180300 43.539100 0
M  V30 12 R 73.683500 53.393600 41.897300 0
M  V30 END ATOM
M  V30 BEGIN BOND
M  V30 1 1 2 1
M  V30 2 1 3 2
M  V30 3 2 4 3
M  V30 4 1 5 4
M  V30 5 2 6 1
M  V30 6 1 6 4
M  V30 7 1 7 3
M  V30 8 1 8 5
M  V30 9 1 9 5
M  V30 10 1 10 5
M  V30 11 1 11 2
M  V30 12 1 12 1
M  V30 END BOND
M  V30 END CTAB
M  END
$$$$
R-group 400 (1366-1)
     RDKit          3D

  0  0  0  0  0  0  0  0  0  0999 V3000
M  V30 BEGIN CTAB
M  V30 COUNTS 13 13 0 0 1
M  V30 BEGIN ATOM
M  V30 1 C 74.257400 55.499900 41.667800 0
M  V30 2 C 73.513400 56.239800 40.554500 0
M  V30 3 C 74.238800 56.198400 43.035400 0
M  V30 4 O 75.672200 56.074000 43.160000 0
M  V30 5 C 75.729600 55.946800 41.729700 0
M  V30 6 H 73.563500 57.321800 40.681900 0
M  V30 7 H 73.937400 56.023800 39.573900 0
M  V30 8 H 72.470600 55.974800 40.523200 0
M  V30 9 H 73.923300 57.243100 43.008400 0
M  V30 10 H 73.686900 55.658200 43.796700 0
M  V30 11 H 76.467200 55.258000 41.359000 0
M  V30 12 H 75.909400 56.918700 41.263400 0
M  V30 13 R 73.843400 53.966600 41.727300 0
M  V30 END ATOM
M  V30 BEGIN BOND
M  V30 1 1 2 1
M  V30 2 1 3 1
M  V30 3 1 4 3
M  V30 4 1 5 1
M  V30 5 1 5 4
M  V30 6 1 6 2
M  V30 7 1 7 2
M  V30 8 1 8 2
M  V30 9 1 9 3
M  V30 10 1 10 3
M  V30 11 1 11 5
M  V30 12 1 12 5
M  V30 13 1 13 1
M  V30 END BOND
M  V30 END CTAB
M  END
$$$$
R-group 401 (17782-2)
     RDKit          3D

  0  0  0  0  0  0  0  0  0  0999 V3000
M  V30 BEGIN CTAB
M  V30 COUNTS 17 17 0 0 1
M  V30 BEGIN ATOM
M  V30 1 O 73.432200 54.787600 41.944300 0
M  V30 2 C 74.582800 55.618800 41.819700 0 CFG=1
M  V30 3 C 74.553300 56.581600 40.612900 0
M  V30 4 C 73.305300 57.461400 40.670300 0
M  V30 5 C 73.244000 58.162400 42.029700 0
M  V30 6 O 73.295900 57.212900 43.088300 0
M  V30 7 C 74.475400 56.402600 43.119200 0
M  V30 8 H 75.513600 55.048800 41.817300 0
M  V30 9 H 75.438800 57.217400 40.649100 0
M  V30 10 H 74.602700 56.070000 39.655400 0
M  V30 11 H 73.315900 58.193600 39.861000 0
M  V30 12 H 72.415000 56.852300 40.523300 0
M  V30 13 H 74.070300 58.854800 42.125900 0
M  V30 14 H 72.325800 58.745400 42.113700 0
M  V30 15 H 74.407200 55.658000 43.921900 0
M  V30 16 H 75.357900 57.016200 43.301100 0
M  V30 17 R 73.525100 53.416000 41.628200 0
M  V30 END ATOM
M  V30 BEGIN BOND
M  V30 1 1 2 1
M  V30 2 1 3 2
M  V30 3 1 4 3
M  V30 4 1 5 4
M  V30 5 1 6 5
M  V30 6 1 7 2
M  V30 7 1 7 6
M  V30 8 1 2 8 CFG=1
M  V30 9 1 9 3
M  V30 10 1 10 3
M  V30 11 1 11 4
M  V30 12 1 12 4
M  V30 13 1 13 5
M  V30 14 1 14 5
M  V30 15 1 15 7
M  V30 16 1 16 7
M  V30 17 1 17 1
M  V30 END BOND
M  V30 END CTAB
M  END
$$$$
R-group 402 (10202-2)
     RDKit          3D

  0  0  0  0  0  0  0  0  0  0999 V3000
M  V30 BEGIN CTAB
M  V30 COUNTS 14 13 0 0 1
M  V30 BEGIN ATOM
M  V30 1 C 73.579900 54.932500 41.930400 0
M  V30 2 C 75.009500 55.403400 41.646800 0
M  V30 3 C 75.107600 56.910400 41.641400 0 CFG=2
M  V30 4 C 76.478400 57.379800 41.154100 0
M  V30 5 F 74.883300 57.257900 42.896100 0
M  V30 6 H 72.910100 55.428000 41.241700 0
M  V30 7 H 73.282800 55.256900 42.927400 0
M  V30 8 H 75.673800 55.016200 42.414800 0
M  V30 9 H 75.383800 55.038100 40.705800 0
M  V30 10 H 74.320400 57.354100 41.031600 0
M  V30 11 H 76.676700 57.033900 40.141500 0
M  V30 12 H 76.544200 58.457800 41.142600 0
M  V30 13 H 77.271100 57.006900 41.793300 0
M  V30 14 R 73.390500 53.417000 41.820000 0
M  V30 END ATOM
M  V30 BEGIN BOND
M  V30 1 1 2 1
M  V30 2 1 3 2
M  V30 3 1 4 3
M  V30 4 1 5 3
M  V30 5 1 6 1
M  V30 6 1 7 1
M  V30 7 1 8 2
M  V30 8 1 9 2
M  V30 9 1 3 10 CFG=3
M  V30 10 1 11 4
M  V30 11 1 12 4
M  V30 12 1 13 4
M  V30 13 1 14 1
M  V30 END BOND
M  V30 END CTAB
M  END
$$$$
R-group 403 (2635-2)
     RDKit          3D

  0  0  0  0  0  0  0  0  0  0999 V3000
M  V30 BEGIN CTAB
M  V30 COUNTS 13 13 0 0 1
M  V30 BEGIN ATOM
M  V30 1 C 73.662300 55.022400 42.137200 0 CFG=2
M  V30 2 C 73.583100 56.035200 41.002800 0
M  V30 3 C 74.913400 55.651100 41.594800 0 CFG=1
M  V30 4 C 75.703600 56.673200 42.340300 0
M  V30 5 O 76.472100 57.258100 41.324500 0
M  V30 6 H 73.361300 55.381400 43.117100 0
M  V30 7 H 73.412900 55.719500 39.977900 0
M  V30 8 H 73.197500 57.025600 41.238000 0
M  V30 9 H 75.557600 54.990300 41.026000 0
M  V30 10 H 75.055200 57.394500 42.836400 0
M  V30 11 H 76.344400 56.195200 43.080700 0
M  V30 12 H 76.998400 57.942500 41.707800 0
M  V30 13 R 73.449800 53.522700 41.951200 0
M  V30 END ATOM
M  V30 BEGIN BOND
M  V30 1 1 2 1
M  V30 2 1 3 1
M  V30 3 1 3 2
M  V30 4 1 4 3
M  V30 5 1 5 4
M  V30 6 1 1 6 CFG=1
M  V30 7 1 7 2
M  V30 8 1 8 2
M  V30 9 1 3 9 CFG=3
M  V30 10 1 10 4
M  V30 11 1 11 4
M  V30 12 1 12 5
M  V30 13 1 13 1
M  V30 END BOND
M  V30 END CTAB
M  END
$$$$
R-group 404 (11278-3)
     RDKit          3D

  0  0  0  0  0  0  0  0  0  0999 V3000
M  V30 BEGIN CTAB
M  V30 COUNTS 19 19 0 0 1
M  V30 BEGIN ATOM
M  V30 1 C 74.165300 55.005900 41.908100 0 CFG=2
M  V30 2 C 73.637800 55.801400 43.119200 0
M  V30 3 C 73.927200 57.308500 43.037500 0
M  V30 4 O 73.671500 57.814800 41.741600 0
M  V30 5 C 74.407400 57.189300 40.697700 0 CFG=1
M  V30 6 C 75.964700 57.229300 40.843300 0
M  V30 7 C 73.821700 55.792400 40.629500 0
M  V30 8 H 75.251900 54.982400 41.970400 0
M  V30 9 H 72.561900 55.659600 43.203400 0
M  V30 10 H 74.072400 55.417100 44.037600 0
M  V30 11 H 73.281500 57.844900 43.729600 0
M  V30 12 H 74.950500 57.536700 43.327000 0
M  V30 13 H 74.131900 57.658100 39.755100 0
M  V30 14 H 76.425300 56.557200 40.124800 0
M  V30 15 H 76.420900 58.207700 40.690400 0
M  V30 16 H 76.318800 56.887500 41.811900 0
M  V30 17 H 74.184900 55.347200 39.712100 0
M  V30 18 H 72.738500 55.860400 40.522800 0
M  V30 19 R 73.695500 53.524000 41.926300 0
M  V30 END ATOM
M  V30 BEGIN BOND
M  V30 1 1 2 1
M  V30 2 1 3 2
M  V30 3 1 4 3
M  V30 4 1 5 4
M  V30 5 1 6 5
M  V30 6 1 7 1
M  V30 7 1 7 5
M  V30 8 1 1 8 CFG=1
M  V30 9 1 9 2
M  V30 10 1 10 2
M  V30 11 1 11 3
M  V30 12 1 12 3
M  V30 13 1 5 13 CFG=3
M  V30 14 1 14 6
M  V30 15 1 15 6
M  V30 16 1 16 6
M  V30 17 1 17 7
M  V30 18 1 18 7
M  V30 19 1 19 1
M  V30 END BOND
M  V30 END CTAB
M  END
$$$$
R-group 405 (42638-1)
     RDKit          3D

  0  0  0  0  0  0  0  0  0  0999 V3000
M  V30 BEGIN CTAB
M  V30 COUNTS 12 12 0 0 1
M  V30 BEGIN ATOM
M  V30 1 C 72.936800 54.536800 41.933500 0
M  V30 2 N 74.027500 55.479200 41.876400 0
M  V30 3 C 74.496000 56.241100 40.826300 0
M  V30 4 C 75.607500 56.855900 41.316500 0
M  V30 5 F 76.473500 57.651200 40.658000 0
M  V30 6 C 75.685400 56.494000 42.676700 0
M  V30 7 N 74.752600 55.641800 42.994100 0
M  V30 8 H 72.183500 54.840300 41.213300 0
M  V30 9 H 72.477800 54.572200 42.920500 0
M  V30 10 H 74.045500 56.247500 39.847000 0
M  V30 11 H 76.409100 56.789500 43.428600 0
M  V30 12 R 73.377400 53.131500 41.544400 0
M  V30 END ATOM
M  V30 BEGIN BOND
M  V30 1 1 2 1
M  V30 2 1 3 2
M  V30 3 2 4 3
M  V30 4 1 5 4
M  V30 5 1 6 4
M  V30 6 1 7 2
M  V30 7 2 7 6
M  V30 8 1 8 1
M  V30 9 1 9 1
M  V30 10 1 10 3
M  V30 11 1 11 6
M  V30 12 1 12 1
M  V30 END BOND
M  V30 END CTAB
M  END
$$$$
R-group 406 (16428-1)
     RDKit          3D

  0  0  0  0  0  0  0  0  0  0999 V3000
M  V30 BEGIN CTAB
M  V30 COUNTS 16 16 0 0 1
M  V30 BEGIN ATOM
M  V30 1 O 73.672300 54.969200 42.189500 0
M  V30 2 C 74.881800 55.630800 41.839400 0 CFG=2
M  V30 3 C 75.707800 55.942200 43.091100 0
M  V30 4 C 74.564600 56.929700 41.126400 0
M  V30 5 C 73.313000 57.150900 40.302600 0
M  V30 6 C 73.440700 57.790000 41.661900 0
M  V30 7 H 75.498200 55.026100 41.182800 0
M  V30 8 H 76.663500 56.316600 42.743000 0
M  V30 9 H 75.271900 56.712600 43.723500 0
M  V30 10 H 75.894600 55.077600 43.723600 0
M  V30 11 H 75.454400 57.461200 40.792200 0
M  V30 12 H 73.404300 57.794100 39.430400 0
M  V30 13 H 72.599600 56.338400 40.202300 0
M  V30 14 H 72.857000 57.379400 42.482400 0
M  V30 15 H 73.618500 58.857900 41.725400 0
M  V30 16 R 73.509200 53.577200 41.901800 0
M  V30 END ATOM
M  V30 BEGIN BOND
M  V30 1 1 2 1
M  V30 2 1 3 2
M  V30 3 1 4 2
M  V30 4 1 5 4
M  V30 5 1 6 4
M  V30 6 1 6 5
M  V30 7 1 2 7 CFG=3
M  V30 8 1 8 3
M  V30 9 1 9 3
M  V30 10 1 10 3
M  V30 11 1 11 4
M  V30 12 1 12 5
M  V30 13 1 13 5
M  V30 14 1 14 6
M  V30 15 1 15 6
M  V30 16 1 16 1
M  V30 END BOND
M  V30 END CTAB
M  END
$$$$
R-group 407 (35689-1)
     RDKit          3D

  0  0  0  0  0  0  0  0  0  0999 V3000
M  V30 BEGIN CTAB
M  V30 COUNTS 16 16 0 0 1
M  V30 BEGIN ATOM
M  V30 1 C 73.861000 55.031900 42.059000 0 CFG=2
M  V30 2 C 73.513600 55.900300 40.836100 0
M  V30 3 C 74.149400 57.238700 41.135600 0 CFG=1
M  V30 4 O 73.272100 58.057500 41.868300 0
M  V30 5 C 75.374400 56.947500 42.003900 0 CFG=2
M  V30 6 F 76.472200 57.257600 41.324900 0
M  V30 7 C 75.316000 55.455400 42.326900 0
M  V30 8 H 73.268400 55.383500 42.905900 0
M  V30 9 H 74.026000 55.538600 39.949500 0
M  V30 10 H 72.472200 55.957800 40.525300 0
M  V30 11 H 74.410300 57.658000 40.171100 0
M  V30 12 H 75.391300 57.540100 42.920700 0
M  V30 13 H 75.639500 55.253700 43.348200 0
M  V30 14 H 75.984800 54.924800 41.653500 0
M  V30 15 H 73.015500 57.594800 42.651700 0
M  V30 16 R 73.597900 53.505300 41.918100 0
M  V30 END ATOM
M  V30 BEGIN BOND
M  V30 1 1 2 1
M  V30 2 1 3 2
M  V30 3 1 4 3
M  V30 4 1 5 3
M  V30 5 1 6 5
M  V30 6 1 7 1
M  V30 7 1 7 5
M  V30 8 1 1 8 CFG=1
M  V30 9 1 9 2
M  V30 10 1 10 2
M  V30 11 1 3 11 CFG=3
M  V30 12 1 5 12 CFG=1
M  V30 13 1 13 7
M  V30 14 1 14 7
M  V30 15 1 15 4
M  V30 16 1 16 1
M  V30 END BOND
M  V30 END CTAB
M  END
$$$$
R-group 408 (12173-1)
     RDKit          3D

  0  0  0  0  0  0  0  0  0  0999 V3000
M  V30 BEGIN CTAB
M  V30 COUNTS 10 10 0 0 1
M  V30 BEGIN ATOM
M  V30 1 N 74.031300 55.195300 42.052200 0
M  V30 2 C 74.207500 55.904600 43.324600 0
M  V30 3 C 74.675400 57.126100 42.543200 0
M  V30 4 C 74.326000 56.312700 41.299200 0
M  V30 5 O 74.305200 56.515900 40.104800 0
M  V30 6 H 73.271400 56.064700 43.862000 0
M  V30 7 H 74.981900 55.486100 43.968700 0
M  V30 8 H 74.071100 58.016200 42.719800 0
M  V30 9 H 75.738700 57.321400 42.679900 0
M  V30 10 R 73.616000 53.814600 41.773500 0
M  V30 END ATOM
M  V30 BEGIN BOND
M  V30 1 1 2 1
M  V30 2 1 3 2
M  V30 3 1 4 1
M  V30 4 1 4 3
M  V30 5 2 5 4
M  V30 6 1 6 2
M  V30 7 1 7 2
M  V30 8 1 8 3
M  V30 9 1 9 3
M  V30 10 1 10 1
M  V30 END BOND
M  V30 END CTAB
M  END
$$$$
R-group 409 (7136-1)
     RDKit          3D

  0  0  0  0  0  0  0  0  0  0999 V3000
M  V30 BEGIN CTAB
M  V30 COUNTS 15 15 0 0 1
M  V30 BEGIN ATOM
M  V30 1 C 72.710800 54.206400 41.914500 0
M  V30 2 C 73.726300 55.284200 41.620200 0
M  V30 3 C 73.673200 55.981800 40.398100 0
M  V30 4 F 72.654000 55.779900 39.529900 0
M  V30 5 C 74.703000 56.857800 40.052900 0
M  V30 6 C 75.784800 57.059100 40.925200 0
M  V30 7 C 75.736500 56.511000 42.201100 0
M  V30 8 C 74.755900 55.588500 42.532400 0
M  V30 9 F 74.872700 54.996800 43.730800 0
M  V30 10 H 71.806600 54.393700 41.331900 0
M  V30 11 H 72.376600 54.285400 42.926500 0
M  V30 12 H 74.665300 57.361400 39.099600 0
M  V30 13 H 76.588800 57.726700 40.652800 0
M  V30 14 H 76.474600 56.757500 42.941800 0
M  V30 15 R 73.228900 52.807600 41.578700 0
M  V30 END ATOM
M  V30 BEGIN BOND
M  V30 1 1 2 1
M  V30 2 2 3 2
M  V30 3 1 4 3
M  V30 4 1 5 3
M  V30 5 2 6 5
M  V30 6 1 7 6
M  V30 7 1 8 2
M  V30 8 2 8 7
M  V30 9 1 9 8
M  V30 10 1 10 1
M  V30 11 1 11 1
M  V30 12 1 12 5
M  V30 13 1 13 6
M  V30 14 1 14 7
M  V30 15 1 15 1
M  V30 END BOND
M  V30 END CTAB
M  END
$$$$
R-group 410 (1142-1)
     RDKit          3D

  0  0  0  0  0  0  0  0  0  0999 V3000
M  V30 BEGIN CTAB
M  V30 COUNTS 16 16 0 0 1
M  V30 BEGIN ATOM
M  V30 1 C 73.978600 55.137900 41.640800 0
M  V30 2 C 73.542300 55.830300 42.927600 0
M  V30 3 C 73.954700 57.293200 42.910900 0
M  V30 4 O 75.373200 57.257400 42.919300 0
M  V30 5 C 75.882100 56.870100 41.655700 0
M  V30 6 C 75.494400 55.410800 41.418000 0
M  V30 7 H 73.434400 55.622800 40.828900 0
M  V30 8 H 72.473000 55.724900 43.113500 0
M  V30 9 H 74.069000 55.335100 43.738800 0
M  V30 10 H 73.561300 57.819000 42.038500 0
M  V30 11 H 73.565700 57.825200 43.770100 0
M  V30 12 H 75.507000 57.516100 40.862100 0
M  V30 13 H 76.964100 56.983300 41.671000 0
M  V30 14 H 76.071400 54.830100 42.124200 0
M  V30 15 H 75.837600 55.122500 40.430500 0
M  V30 16 R 73.567200 53.639600 41.700500 0
M  V30 END ATOM
M  V30 BEGIN BOND
M  V30 1 1 2 1
M  V30 2 1 3 2
M  V30 3 1 4 3
M  V30 4 1 5 4
M  V30 5 1 6 1
M  V30 6 1 6 5
M  V30 7 1 7 1
M  V30 8 1 8 2
M  V30 9 1 9 2
M  V30 10 1 10 3
M  V30 11 1 11 3
M  V30 12 1 12 5
M  V30 13 1 13 5
M  V30 14 1 14 6
M  V30 15 1 15 6
M  V30 16 1 16 1
M  V30 END BOND
M  V30 END CTAB
M  END
$$$$
R-group 411 (8018-4)
     RDKit          3D

  0  0  0  0  0  0  0  0  0  0999 V3000
M  V30 BEGIN CTAB
M  V30 COUNTS 11 11 0 0 1
M  V30 BEGIN ATOM
M  V30 1 C 74.041900 55.265600 41.694800 0 CFG=2
M  V30 2 F 73.486600 55.908900 40.597600 0
M  V30 3 C 74.145600 56.135800 42.924200 0
M  V30 4 C 75.386400 55.816900 42.136000 0 CFG=2
M  V30 5 N 75.965100 56.858000 41.324200 0
M  V30 6 H 73.741600 57.144500 42.864300 0
M  V30 7 H 74.070300 55.657600 43.896100 0
M  V30 8 H 76.064400 55.168800 42.669000 0
M  V30 9 H 76.605700 57.416900 41.869300 0
M  V30 10 H 76.508300 56.457400 40.570900 0
M  V30 11 R 73.630300 53.781400 41.766600 0
M  V30 END ATOM
M  V30 BEGIN BOND
M  V30 1 1 2 1
M  V30 2 1 3 1
M  V30 3 1 4 1
M  V30 4 1 4 3
M  V30 5 1 5 4
M  V30 6 1 6 3
M  V30 7 1 7 3
M  V30 8 1 4 8 CFG=1
M  V30 9 1 9 5
M  V30 10 1 10 5
M  V30 11 1 1 11 CFG=1
M  V30 END BOND
M  V30 END CTAB
M  END
$$$$
R-group 412 (22412-1)
     RDKit          3D

  0  0  0  0  0  0  0  0  0  0999 V3000
M  V30 BEGIN CTAB
M  V30 COUNTS 16 16 0 0 1
M  V30 BEGIN ATOM
M  V30 1 C 74.052400 55.362500 41.822000 0 CFG=2
M  V30 2 C 73.533400 56.035100 43.120400 0
M  V30 3 C 75.537100 55.717800 41.618600 0
M  V30 4 C 75.553900 56.960100 40.737100 0
M  V30 5 C 74.085800 57.251100 40.438200 0
M  V30 6 O 73.452800 56.007800 40.694300 0
M  V30 7 H 74.073500 55.657100 43.985200 0
M  V30 8 H 73.679900 57.114000 43.123900 0
M  V30 9 H 72.475300 55.848300 43.312000 0
M  V30 10 H 76.053600 55.881300 42.565000 0
M  V30 11 H 76.064700 54.928000 41.099700 0
M  V30 12 H 76.066400 57.799000 41.209600 0
M  V30 13 H 76.072200 56.740100 39.807500 0
M  V30 14 H 73.677200 58.019000 41.097400 0
M  V30 15 H 73.921300 57.572700 39.407000 0
M  V30 16 R 73.704400 53.823500 41.793400 0
M  V30 END ATOM
M  V30 BEGIN BOND
M  V30 1 1 2 1
M  V30 2 1 3 1
M  V30 3 1 4 3
M  V30 4 1 5 4
M  V30 5 1 6 1
M  V30 6 1 6 5
M  V30 7 1 7 2
M  V30 8 1 8 2
M  V30 9 1 9 2
M  V30 10 1 10 3
M  V30 11 1 11 3
M  V30 12 1 12 4
M  V30 13 1 13 4
M  V30 14 1 14 5
M  V30 15 1 15 5
M  V30 16 1 1 16 CFG=1
M  V30 END BOND
M  V30 END CTAB
M  END
$$$$
R-group 413 (4362-1)
     RDKit          3D

  0  0  0  0  0  0  0  0  0  0999 V3000
M  V30 BEGIN CTAB
M  V30 COUNTS 17 16 0 0 1
M  V30 BEGIN ATOM
M  V30 1 C 76.494000 57.440400 40.997600 0
M  V30 2 C 75.095100 56.983000 41.428000 0
M  V30 3 C 75.068100 55.559400 42.009800 0 CFG=1
M  V30 4 C 75.670200 55.534400 43.428600 0
M  V30 5 C 73.613800 55.016800 42.014400 0
M  V30 6 H 76.472300 58.458100 40.618200 0
M  V30 7 H 76.873200 56.802400 40.200700 0
M  V30 8 H 77.210400 57.417200 41.815800 0
M  V30 9 H 74.664200 57.658100 42.163100 0
M  V30 10 H 74.453600 57.043100 40.546600 0
M  V30 11 H 75.682800 54.939400 41.363200 0
M  V30 12 H 74.857700 55.657300 44.124700 0
M  V30 13 H 76.072100 54.577300 43.724400 0
M  V30 14 H 76.433000 56.291600 43.609700 0
M  V30 15 H 73.100800 55.325600 42.924700 0
M  V30 16 H 73.043100 55.512600 41.230100 0
M  V30 17 R 73.430500 53.494800 41.825500 0
M  V30 END ATOM
M  V30 BEGIN BOND
M  V30 1 1 2 1
M  V30 2 1 3 2
M  V30 3 1 4 3
M  V30 4 1 5 3
M  V30 5 1 6 1
M  V30 6 1 7 1
M  V30 7 1 8 1
M  V30 8 1 9 2
M  V30 9 1 10 2
M  V30 10 1 3 11 CFG=3
M  V30 11 1 12 4
M  V30 12 1 13 4
M  V30 13 1 14 4
M  V30 14 1 15 5
M  V30 15 1 16 5
M  V30 16 1 17 5
M  V30 END BOND
M  V30 END CTAB
M  END
$$$$
R-group 414 (3841-1)
     RDKit          3D

  0  0  0  0  0  0  0  0  0  0999 V3000
M  V30 BEGIN CTAB
M  V30 COUNTS 15 15 0 0 1
M  V30 BEGIN ATOM
M  V30 1 N 73.272400 54.542700 42.124700 0
M  V30 2 C 74.412800 55.469000 41.999000 0 CFG=2
M  V30 3 C 74.585600 56.214600 43.323700 0
M  V30 4 C 73.871800 57.558000 43.145800 0
M  V30 5 N 73.671700 57.658100 41.724300 0
M  V30 6 C 74.070100 56.590700 41.042800 0
M  V30 7 O 74.121800 56.499900 39.820000 0
M  V30 8 H 72.886200 54.547100 43.070500 0
M  V30 9 H 75.334800 54.973800 41.691200 0
M  V30 10 H 74.089100 55.646400 44.082200 0
M  V30 11 H 75.639400 56.339500 43.579600 0
M  V30 12 H 74.472500 58.390100 43.504400 0
M  V30 13 H 72.905500 57.567900 43.653500 0
M  V30 14 H 73.393100 58.519700 41.275700 0
M  V30 15 R 73.504100 53.190400 41.690400 0
M  V30 END ATOM
M  V30 BEGIN BOND
M  V30 1 1 2 1
M  V30 2 1 3 2
M  V30 3 1 4 3
M  V30 4 1 5 4
M  V30 5 1 6 2
M  V30 6 1 6 5
M  V30 7 2 7 6
M  V30 8 1 8 1
M  V30 9 1 2 9 CFG=3
M  V30 10 1 10 3
M  V30 11 1 11 3
M  V30 12 1 12 4
M  V30 13 1 13 4
M  V30 14 1 14 5
M  V30 15 1 15 1
M  V30 END BOND
M  V30 END CTAB
M  END
$$$$
R-group 415 (7569-1)
     RDKit          3D

  0  0  0  0  0  0  0  0  0  0999 V3000
M  V30 BEGIN CTAB
M  V30 COUNTS 10 10 0 0 1
M  V30 BEGIN ATOM
M  V30 1 O 72.935200 54.250300 42.055800 0
M  V30 2 C 73.806500 55.214500 41.690200 0
M  V30 3 C 73.966800 55.966900 40.554600 0
M  V30 4 C 75.068400 56.856700 40.645400 0
M  V30 5 C 75.666400 56.836900 41.873000 0
M  V30 6 S 74.921500 55.675300 42.924000 0
M  V30 7 H 73.359700 55.897300 39.665200 0
M  V30 8 H 75.364300 57.486900 39.820900 0
M  V30 9 H 76.477700 57.448300 42.231600 0
M  V30 10 R 73.275300 52.937600 41.646000 0
M  V30 END ATOM
M  V30 BEGIN BOND
M  V30 1 1 2 1
M  V30 2 2 3 2
M  V30 3 1 4 3
M  V30 4 2 5 4
M  V30 5 1 6 2
M  V30 6 1 6 5
M  V30 7 1 7 3
M  V30 8 1 8 4
M  V30 9 1 9 5
M  V30 10 1 10 1
M  V30 END BOND
M  V30 END CTAB
M  END
$$$$
R-group 416 (8663-1)
     RDKit          3D

  0  0  0  0  0  0  0  0  0  0999 V3000
M  V30 BEGIN CTAB
M  V30 COUNTS 13 13 0 0 1
M  V30 BEGIN ATOM
M  V30 1 C 74.594200 55.175000 42.095400 0 CFG=2
M  V30 2 O 75.203600 55.509100 43.323500 0
M  V30 3 C 73.634500 56.304100 41.821100 0
M  V30 4 C 74.152000 57.618900 41.324400 0
M  V30 5 C 73.312100 56.757700 40.413300 0
M  V30 6 H 75.389700 55.190800 41.351200 0
M  V30 7 H 72.872400 56.403600 42.585500 0
M  V30 8 H 73.690400 58.514900 41.733400 0
M  V30 9 H 75.225900 57.657900 41.151600 0
M  V30 10 H 73.823300 56.267700 39.586300 0
M  V30 11 H 72.299000 57.091600 40.200700 0
M  V30 12 H 74.526600 55.545000 43.984000 0
M  V30 13 R 73.900100 53.780700 42.134400 0
M  V30 END ATOM
M  V30 BEGIN BOND
M  V30 1 1 2 1
M  V30 2 1 3 1
M  V30 3 1 4 3
M  V30 4 1 5 3
M  V30 5 1 5 4
M  V30 6 1 1 6 CFG=3
M  V30 7 1 7 3
M  V30 8 1 8 4
M  V30 9 1 9 4
M  V30 10 1 10 5
M  V30 11 1 11 5
M  V30 12 1 12 2
M  V30 13 1 13 1
M  V30 END BOND
M  V30 END CTAB
M  END
$$$$
R-group 417 (10776-1)
     RDKit          3D

  0  0  0  0  0  0  0  0  0  0999 V3000
M  V30 BEGIN CTAB
M  V30 COUNTS 21 21 0 0 1
M  V30 BEGIN ATOM
M  V30 1 C 74.012800 54.968500 41.834000 0 CFG=2
M  V30 2 C 73.565100 55.741500 43.099600 0
M  V30 3 C 73.860500 57.238100 43.063300 0
M  V30 4 C 73.501700 57.851600 41.718300 0
M  V30 5 C 74.121400 57.126800 40.526100 0 CFG=1
M  V30 6 C 75.671100 57.118600 40.493300 0
M  V30 7 C 73.558500 55.716900 40.552200 0
M  V30 8 H 75.101200 54.978000 41.823700 0
M  V30 9 H 72.496100 55.624800 43.278300 0
M  V30 10 H 74.073100 55.337000 43.971100 0
M  V30 11 H 73.272700 57.736100 43.836600 0
M  V30 12 H 74.909000 57.418000 43.295600 0
M  V30 13 H 73.815800 58.859900 41.727100 0
M  V30 14 H 72.423700 57.891200 41.601600 0
M  V30 15 H 73.771600 57.607700 39.610400 0
M  V30 16 H 76.121900 56.867900 41.452800 0
M  V30 17 H 76.022000 56.386800 39.772600 0
M  V30 18 H 76.110700 58.058000 40.188500 0
M  V30 19 H 73.881700 55.249400 39.627800 0
M  V30 20 H 72.472000 55.746200 40.493400 0
M  V30 21 R 73.614100 53.472500 41.896000 0
M  V30 END ATOM
M  V30 BEGIN BOND
M  V30 1 1 2 1
M  V30 2 1 3 2
M  V30 3 1 4 3
M  V30 4 1 5 4
M  V30 5 1 6 5
M  V30 6 1 7 1
M  V30 7 1 7 5
M  V30 8 1 1 8 CFG=3
M  V30 9 1 9 2
M  V30 10 1 10 2
M  V30 11 1 11 3
M  V30 12 1 12 3
M  V30 13 1 13 4
M  V30 14 1 14 4
M  V30 15 1 5 15 CFG=3
M  V30 16 1 16 6
M  V30 17 1 17 6
M  V30 18 1 18 6
M  V30 19 1 19 7
M  V30 20 1 20 7
M  V30 21 1 21 1
M  V30 END BOND
M  V30 END CTAB
M  END
$$$$
R-group 418 (7501-1)
     RDKit          3D

  0  0  0  0  0  0  0  0  0  0999 V3000
M  V30 BEGIN CTAB
M  V30 COUNTS 13 12 0 0 1
M  V30 BEGIN ATOM
M  V30 1 O 73.673100 54.968100 42.265600 0
M  V30 2 C 74.888100 55.668600 42.028300 0
M  V30 3 C 74.562000 57.143200 41.752200 0
M  V30 4 C 73.527700 57.356000 40.630600 0
M  V30 5 O 74.013300 56.857900 39.398100 0
M  V30 6 H 75.530300 55.576100 42.903500 0
M  V30 7 H 75.458000 55.258900 41.195500 0
M  V30 8 H 74.187500 57.600100 42.669400 0
M  V30 9 H 75.489700 57.657600 41.502800 0
M  V30 10 H 72.596900 56.860400 40.884200 0
M  V30 11 H 73.272900 58.412600 40.527100 0
M  V30 12 H 73.675700 57.393400 38.685300 0
M  V30 13 R 73.615700 53.610200 41.835900 0
M  V30 END ATOM
M  V30 BEGIN BOND
M  V30 1 1 2 1
M  V30 2 1 3 2
M  V30 3 1 4 3
M  V30 4 1 5 4
M  V30 5 1 6 2
M  V30 6 1 7 2
M  V30 7 1 8 3
M  V30 8 1 9 3
M  V30 9 1 10 4
M  V30 10 1 11 4
M  V30 11 1 12 5
M  V30 12 1 13 1
M  V30 END BOND
M  V30 END CTAB
M  END
$$$$
R-group 419 (769-1)
     RDKit          3D

  0  0  0  0  0  0  0  0  0  0999 V3000
M  V30 BEGIN CTAB
M  V30 COUNTS 8 8 0 0 1
M  V30 BEGIN ATOM
M  V30 1 C 74.116000 54.923800 41.984400 0
M  V30 2 N 74.872300 55.529000 42.897100 0
M  V30 3 C 74.878900 56.857700 42.524600 0
M  V30 4 C 74.112000 56.985200 41.399500 0
M  V30 5 O 73.672100 55.762000 41.014500 0
M  V30 6 H 75.402000 57.603700 43.106000 0
M  V30 7 H 73.812500 57.816100 40.780500 0
M  V30 8 R 73.709100 53.485000 41.927300 0
M  V30 END ATOM
M  V30 BEGIN BOND
M  V30 1 2 2 1
M  V30 2 1 3 2
M  V30 3 2 4 3
M  V30 4 1 5 1
M  V30 5 1 5 4
M  V30 6 1 6 3
M  V30 7 1 7 4
M  V30 8 1 8 1
M  V30 END BOND
M  V30 END CTAB
M  END
$$$$
R-group 420 (7574-1)
     RDKit          3D

  0  0  0  0  0  0  0  0  0  0999 V3000
M  V30 BEGIN CTAB
M  V30 COUNTS 16 15 0 0 1
M  V30 BEGIN ATOM
M  V30 1 O 73.272300 54.847100 42.125500 0
M  V30 2 C 73.942500 56.029700 41.671000 0
M  V30 3 C 73.431400 56.548300 40.298000 0
M  V30 4 C 73.524300 57.059100 42.734000 0
M  V30 5 C 75.463600 55.817800 41.707800 0
M  V30 6 O 76.106000 57.001700 41.322200 0
M  V30 7 H 73.536200 57.632100 40.232600 0
M  V30 8 H 73.994900 56.166300 39.451000 0
M  V30 9 H 72.379500 56.319400 40.125300 0
M  V30 10 H 74.074800 57.996300 42.662600 0
M  V30 11 H 72.472300 57.315300 42.650000 0
M  V30 12 H 73.671600 56.645000 43.724700 0
M  V30 13 H 75.778100 55.028400 41.029100 0
M  V30 14 H 75.787600 55.544700 42.711400 0
M  V30 15 H 75.932400 57.661200 41.975500 0
M  V30 16 R 73.507700 53.518800 41.648500 0
M  V30 END ATOM
M  V30 BEGIN BOND
M  V30 1 1 2 1
M  V30 2 1 3 2
M  V30 3 1 4 2
M  V30 4 1 5 2
M  V30 5 1 6 5
M  V30 6 1 7 3
M  V30 7 1 8 3
M  V30 8 1 9 3
M  V30 9 1 10 4
M  V30 10 1 11 4
M  V30 11 1 12 4
M  V30 12 1 13 5
M  V30 13 1 14 5
M  V30 14 1 15 6
M  V30 15 1 16 1
M  V30 END BOND
M  V30 END CTAB
M  END
$$$$
R-group 421 (10780-1)
     RDKit          3D

  0  0  0  0  0  0  0  0  0  0999 V3000
M  V30 BEGIN CTAB
M  V30 COUNTS 21 21 0 0 1
M  V30 BEGIN ATOM
M  V30 1 C 74.065300 55.231900 41.668300 0
M  V30 2 C 75.591100 55.473400 41.546900 0
M  V30 3 C 73.366600 55.903600 40.453900 0
M  V30 4 C 73.513900 57.424600 40.402000 0
M  V30 5 C 73.136400 58.107300 41.725800 0
M  V30 6 C 73.770000 57.450100 42.949200 0
M  V30 7 C 73.560700 55.933200 42.954400 0
M  V30 8 H 75.855800 56.506500 41.335300 0
M  V30 9 H 76.072200 55.258000 42.492700 0
M  V30 10 H 76.051800 54.882200 40.760700 0
M  V30 11 H 73.762000 55.514200 39.516700 0
M  V30 12 H 72.310100 55.660200 40.445600 0
M  V30 13 H 74.527100 57.657900 40.092600 0
M  V30 14 H 72.875100 57.795600 39.609200 0
M  V30 15 H 73.324600 59.175500 41.724700 0
M  V30 16 H 72.072200 58.058000 41.843900 0
M  V30 17 H 74.836600 57.658200 43.008600 0
M  V30 18 H 73.308100 57.880100 43.837100 0
M  V30 19 H 72.502400 55.725500 43.114700 0
M  V30 20 H 74.073000 55.526000 43.822700 0
M  V30 21 R 73.705200 53.693400 41.770800 0
M  V30 END ATOM
M  V30 BEGIN BOND
M  V30 1 1 2 1
M  V30 2 1 3 1
M  V30 3 1 4 3
M  V30 4 1 5 4
M  V30 5 1 6 5
M  V30 6 1 7 1
M  V30 7 1 7 6
M  V30 8 1 8 2
M  V30 9 1 9 2
M  V30 10 1 10 2
M  V30 11 1 11 3
M  V30 12 1 12 3
M  V30 13 1 13 4
M  V30 14 1 14 4
M  V30 15 1 15 5
M  V30 16 1 16 5
M  V30 17 1 17 6
M  V30 18 1 18 6
M  V30 19 1 19 7
M  V30 20 1 20 7
M  V30 21 1 21 1
M  V30 END BOND
M  V30 END CTAB
M  END
$$$$
R-group 422 (22674-3)
     RDKit          3D

  0  0  0  0  0  0  0  0  0  0999 V3000
M  V30 BEGIN CTAB
M  V30 COUNTS 17 17 0 0 1
M  V30 BEGIN ATOM
M  V30 1 C 73.525500 54.973600 41.505600 0 CFG=1
M  V30 2 C 73.487900 55.836000 42.779100 0
M  V30 3 C 74.570200 56.894700 42.614500 0 CFG=1
M  V30 4 O 75.677100 56.415700 43.324600 0
M  V30 5 C 74.935800 56.904500 41.134500 0 CFG=1
M  V30 6 O 76.283800 57.257800 40.924800 0
M  V30 7 C 74.715300 55.476200 40.680200 0
M  V30 8 H 72.648600 55.257500 40.924600 0
M  V30 9 H 72.515500 56.301900 42.925000 0
M  V30 10 H 73.677400 55.259500 43.674700 0
M  V30 11 H 74.271100 57.871000 42.998200 0
M  V30 12 H 74.261600 57.567600 40.591200 0
M  V30 13 H 75.601500 54.871400 40.877000 0
M  V30 14 H 74.514600 55.466800 39.610200 0
M  V30 15 H 76.237900 57.155200 43.516200 0
M  V30 16 H 76.809000 56.659000 41.436600 0
M  V30 17 R 73.439000 53.438300 41.718700 0
M  V30 END ATOM
M  V30 BEGIN BOND
M  V30 1 1 2 1
M  V30 2 1 3 2
M  V30 3 1 4 3
M  V30 4 1 5 3
M  V30 5 1 6 5
M  V30 6 1 7 1
M  V30 7 1 7 5
M  V30 8 1 1 8 CFG=3
M  V30 9 1 9 2
M  V30 10 1 10 2
M  V30 11 1 3 11 CFG=1
M  V30 12 1 5 12 CFG=3
M  V30 13 1 13 7
M  V30 14 1 14 7
M  V30 15 1 15 4
M  V30 16 1 16 6
M  V30 17 1 17 1
M  V30 END BOND
M  V30 END CTAB
M  END
$$$$
R-group 423 (1417-1)
     RDKit          3D

  0  0  0  0  0  0  0  0  0  0999 V3000
M  V30 BEGIN CTAB
M  V30 COUNTS 17 16 0 0 1
M  V30 BEGIN ATOM
M  V30 1 C 73.043400 54.645300 42.053900 0
M  V30 2 C 74.026800 55.852200 42.239500 0
M  V30 3 C 74.848400 56.165300 40.974400 0
M  V30 4 C 74.990300 55.599700 43.399900 0
M  V30 5 C 73.224500 57.116900 42.606000 0
M  V30 6 H 72.409100 54.544900 42.924600 0
M  V30 7 H 72.340500 54.858000 41.258100 0
M  V30 8 H 75.465600 57.053800 41.114900 0
M  V30 9 H 74.204400 56.353600 40.114800 0
M  V30 10 H 75.529200 55.350900 40.725000 0
M  V30 11 H 74.472600 55.258000 44.297300 0
M  V30 12 H 75.672600 54.815400 43.124400 0
M  V30 13 H 75.588900 56.477500 43.647700 0
M  V30 14 H 72.686100 56.976200 43.544500 0
M  V30 15 H 73.878000 57.979800 42.740500 0
M  V30 16 H 72.493400 57.388100 41.840900 0
M  V30 17 R 73.505600 53.246100 41.611300 0
M  V30 END ATOM
M  V30 BEGIN BOND
M  V30 1 1 2 1
M  V30 2 1 3 2
M  V30 3 1 4 2
M  V30 4 1 5 2
M  V30 5 1 6 1
M  V30 6 1 7 1
M  V30 7 1 8 3
M  V30 8 1 9 3
M  V30 9 1 10 3
M  V30 10 1 11 4
M  V30 11 1 12 4
M  V30 12 1 13 4
M  V30 13 1 14 5
M  V30 14 1 15 5
M  V30 15 1 16 5
M  V30 16 1 17 1
M  V30 END BOND
M  V30 END CTAB
M  END
$$$$
R-group 424 (2365-1)
     RDKit          3D

  0  0  0  0  0  0  0  0  0  0999 V3000
M  V30 BEGIN CTAB
M  V30 COUNTS 10 10 0 0 1
M  V30 BEGIN ATOM
M  V30 1 C 74.563200 55.254700 41.881100 0
M  V30 2 C 73.886800 56.477800 41.267700 0
M  V30 3 O 73.922500 57.197500 42.522400 0
M  V30 4 C 74.630600 56.098700 43.142800 0
M  V30 5 H 75.569000 55.176100 41.465900 0
M  V30 6 H 74.484500 56.964700 40.495800 0
M  V30 7 H 72.872500 56.303200 40.920200 0
M  V30 8 H 74.072400 55.657500 43.964900 0
M  V30 9 H 75.645300 56.367700 43.442000 0
M  V30 10 R 73.864800 53.883800 41.931800 0
M  V30 END ATOM
M  V30 BEGIN BOND
M  V30 1 1 2 1
M  V30 2 1 3 2
M  V30 3 1 4 1
M  V30 4 1 4 3
M  V30 5 1 5 1
M  V30 6 1 6 2
M  V30 7 1 7 2
M  V30 8 1 8 4
M  V30 9 1 9 4
M  V30 10 1 10 1
M  V30 END BOND
M  V30 END CTAB
M  END
$$$$
R-group 425 (40104-1)
     RDKit          3D

  0  0  0  0  0  0  0  0  0  0999 V3000
M  V30 BEGIN CTAB
M  V30 COUNTS 16 16 0 0 1
M  V30 BEGIN ATOM
M  V30 1 N 74.219500 55.150800 42.067900 0
M  V30 2 C 74.759700 55.748600 43.289800 0
M  V30 3 C 74.989100 57.225100 43.005800 0
M  V30 4 C 74.837700 57.364000 41.506500 0 CFG=1
M  V30 5 C 76.191300 57.593000 40.805700 0
M  V30 6 C 74.207400 56.058300 41.073100 0
M  V30 7 O 73.753600 55.930300 39.936900 0
M  V30 8 H 74.072000 55.658000 44.124500 0
M  V30 9 H 75.707200 55.284000 43.559800 0
M  V30 10 H 74.226100 57.830500 43.495900 0
M  V30 11 H 75.959500 57.562400 43.373500 0
M  V30 12 H 74.105500 58.149100 41.324700 0
M  V30 13 H 76.071700 57.752400 39.735600 0
M  V30 14 H 76.713300 58.456400 41.214700 0
M  V30 15 H 76.851900 56.736200 40.935100 0
M  V30 16 R 73.753500 53.738200 42.085500 0
M  V30 END ATOM
M  V30 BEGIN BOND
M  V30 1 1 2 1
M  V30 2 1 3 2
M  V30 3 1 4 3
M  V30 4 1 5 4
M  V30 5 1 6 1
M  V30 6 1 6 4
M  V30 7 2 7 6
M  V30 8 1 8 2
M  V30 9 1 9 2
M  V30 10 1 10 3
M  V30 11 1 11 3
M  V30 12 1 4 12 CFG=1
M  V30 13 1 13 5
M  V30 14 1 14 5
M  V30 15 1 15 5
M  V30 16 1 16 1
M  V30 END BOND
M  V30 END CTAB
M  END
$$$$
R-group 426 (18507-1)
     RDKit          3D

  0  0  0  0  0  0  0  0  0  0999 V3000
M  V30 BEGIN CTAB
M  V30 COUNTS 12 12 0 0 1
M  V30 BEGIN ATOM
M  V30 1 C 73.633400 55.186000 42.366000 0
M  V30 2 C 74.985900 55.831100 42.539400 0 CFG=2
M  V30 3 C 75.021600 57.284400 42.924100 0
M  V30 4 C 75.512800 56.857800 41.567400 0
M  V30 5 F 76.872100 56.923200 41.344700 0
M  V30 6 F 74.739000 57.199100 40.471900 0
M  V30 7 H 73.037500 55.838600 41.733400 0
M  V30 8 H 73.138400 55.216300 43.324700 0
M  V30 9 H 75.702300 55.228000 43.084800 0
M  V30 10 H 74.073200 57.818300 42.967300 0
M  V30 11 H 75.762500 57.597700 43.658000 0
M  V30 12 R 73.653300 53.767600 41.754000 0
M  V30 END ATOM
M  V30 BEGIN BOND
M  V30 1 1 2 1
M  V30 2 1 3 2
M  V30 3 1 4 2
M  V30 4 1 4 3
M  V30 5 1 5 4
M  V30 6 1 6 4
M  V30 7 1 7 1
M  V30 8 1 8 1
M  V30 9 1 2 9 CFG=1
M  V30 10 1 10 3
M  V30 11 1 11 3
M  V30 12 1 12 1
M  V30 END BOND
M  V30 END CTAB
M  END
$$$$
R-group 427 (19918-1)
     RDKit          3D

  0  0  0  0  0  0  0  0  0  0999 V3000
M  V30 BEGIN CTAB
M  V30 COUNTS 16 16 0 0 1
M  V30 BEGIN ATOM
M  V30 1 N 74.274200 55.118600 41.781400 0
M  V30 2 C 74.537100 55.749600 43.067000 0
M  V30 3 C 74.492300 57.264300 42.850100 0 CFG=2
M  V30 4 C 73.084600 57.809600 43.159500 0
M  V30 5 C 74.757100 57.371000 41.358900 0
M  V30 6 C 74.351000 56.035100 40.803100 0
M  V30 7 O 74.064700 55.913500 39.614200 0
M  V30 8 H 73.737800 55.449900 43.725600 0
M  V30 9 H 75.498100 55.434400 43.475100 0
M  V30 10 H 75.248900 57.760000 43.456500 0
M  V30 11 H 72.472300 57.253500 42.478500 0
M  V30 12 H 72.750900 57.590900 44.172500 0
M  V30 13 H 72.858400 58.855700 42.922200 0
M  V30 14 H 75.792200 57.613500 41.104800 0
M  V30 15 H 74.058000 58.058100 40.913500 0
M  V30 16 R 73.788200 53.721000 41.770600 0
M  V30 END ATOM
M  V30 BEGIN BOND
M  V30 1 1 2 1
M  V30 2 1 3 2
M  V30 3 1 4 3
M  V30 4 1 5 3
M  V30 5 1 6 1
M  V30 6 1 6 5
M  V30 7 2 7 6
M  V30 8 1 8 2
M  V30 9 1 9 2
M  V30 10 1 3 10 CFG=1
M  V30 11 1 11 4
M  V30 12 1 12 4
M  V30 13 1 13 4
M  V30 14 1 14 5
M  V30 15 1 15 5
M  V30 16 1 16 1
M  V30 END BOND
M  V30 END CTAB
M  END
$$$$
R-group 428 (22529-2)
     RDKit          3D

  0  0  0  0  0  0  0  0  0  0999 V3000
M  V30 BEGIN CTAB
M  V30 COUNTS 22 22 0 0 1
M  V30 BEGIN ATOM
M  V30 1 O 73.528400 54.515500 42.095100 0
M  V30 2 C 74.693800 55.150600 41.590600 0 CFG=1
M  V30 3 C 74.363600 55.899700 40.272900 0
M  V30 4 C 73.487900 57.125600 40.488200 0
M  V30 5 C 74.071600 57.945900 41.615500 0
M  V30 6 C 74.190700 57.217800 42.927100 0
M  V30 7 C 75.189700 56.083200 42.705700 0 CFG=1
M  V30 8 C 75.487100 55.380900 44.015300 0
M  V30 9 H 75.506300 54.455000 41.397200 0
M  V30 10 H 75.299000 56.214400 39.805900 0
M  V30 11 H 73.862800 55.267200 39.545800 0
M  V30 12 H 73.449200 57.718600 39.570400 0
M  V30 13 H 72.472300 56.856300 40.733800 0
M  V30 14 H 75.111300 58.056000 41.328300 0
M  V30 15 H 73.546600 58.886800 41.725500 0
M  V30 16 H 73.225200 56.851100 43.274900 0
M  V30 17 H 74.572000 57.903100 43.685900 0
M  V30 18 H 76.146000 56.499800 42.376000 0
M  V30 19 H 74.575500 55.109200 44.549600 0
M  V30 20 H 76.072300 54.491400 43.858600 0
M  V30 21 H 76.072400 56.054200 44.622300 0
M  V30 22 R 73.442700 53.113800 41.942700 0
M  V30 END ATOM
M  V30 BEGIN BOND
M  V30 1 1 2 1
M  V30 2 1 3 2
M  V30 3 1 4 3
M  V30 4 1 5 4
M  V30 5 1 6 5
M  V30 6 1 7 2
M  V30 7 1 7 6
M  V30 8 1 8 7
M  V30 9 1 2 9 CFG=3
M  V30 10 1 10 3
M  V30 11 1 11 3
M  V30 12 1 12 4
M  V30 13 1 13 4
M  V30 14 1 14 5
M  V30 15 1 15 5
M  V30 16 1 16 6
M  V30 17 1 17 6
M  V30 18 1 7 18 CFG=3
M  V30 19 1 19 8
M  V30 20 1 20 8
M  V30 21 1 21 8
M  V30 22 1 22 1
M  V30 END BOND
M  V30 END CTAB
M  END
$$$$
R-group 429 (5700-1)
     RDKit          3D

  0  0  0  0  0  0  0  0  0  0999 V3000
M  V30 BEGIN CTAB
M  V30 COUNTS 15 14 0 0 1
M  V30 BEGIN ATOM
M  V30 1 N 73.672500 54.861200 42.084800 0
M  V30 2 C 74.653100 55.493900 41.434200 0
M  V30 3 O 75.272600 54.975800 40.524700 0
M  V30 4 C 75.090500 56.856400 41.938800 0
M  V30 5 C 75.834100 56.621300 43.249600 0
M  V30 6 C 76.038400 57.519400 40.914700 0
M  V30 7 F 73.995400 57.588700 42.157000 0
M  V30 8 H 76.741100 56.058100 43.053400 0
M  V30 9 H 75.273100 56.000200 43.941800 0
M  V30 10 H 76.073600 57.568200 43.725700 0
M  V30 11 H 76.874300 56.863300 40.702300 0
M  V30 12 H 75.543600 57.658100 39.954600 0
M  V30 13 H 76.472300 58.457900 41.253600 0
M  V30 14 H 73.215200 55.356900 42.836200 0
M  V30 15 R 73.417800 53.427700 41.997300 0
M  V30 END ATOM
M  V30 BEGIN BOND
M  V30 1 1 2 1
M  V30 2 2 3 2
M  V30 3 1 4 2
M  V30 4 1 5 4
M  V30 5 1 6 4
M  V30 6 1 7 4
M  V30 7 1 8 5
M  V30 8 1 9 5
M  V30 9 1 10 5
M  V30 10 1 11 6
M  V30 11 1 12 6
M  V30 12 1 13 6
M  V30 13 1 14 1
M  V30 14 1 15 1
M  V30 END BOND
M  V30 END CTAB
M  END
$$$$
R-group 430 (25577-1)
     RDKit          3D

  0  0  0  0  0  0  0  0  0  0999 V3000
M  V30 BEGIN CTAB
M  V30 COUNTS 17 17 0 0 1
M  V30 BEGIN ATOM
M  V30 1 C 73.337200 54.350600 41.453200 0
M  V30 2 O 72.825400 54.794600 40.428900 0
M  V30 3 N 73.962300 55.081200 42.379500 0
M  V30 4 C 74.297300 56.482500 42.377800 0 CFG=2
M  V30 5 C 74.500000 57.097200 40.994500 0
M  V30 6 C 76.001600 57.054600 40.796500 0
M  V30 7 O 76.488700 57.258000 42.097700 0
M  V30 8 C 75.666000 56.630200 43.049400 0
M  V30 9 H 73.525300 57.016000 42.928200 0
M  V30 10 H 73.996400 56.698500 40.123300 0
M  V30 11 H 74.071400 58.071000 41.093700 0
M  V30 12 H 76.324800 56.073600 40.439600 0
M  V30 13 H 76.378000 57.818200 40.119200 0
M  V30 14 H 75.677800 57.272000 43.928000 0
M  V30 15 H 76.093700 55.662800 43.332500 0
M  V30 16 H 74.258200 54.580400 43.201700 0
M  V30 17 R 73.339200 52.852700 41.700000 0
M  V30 END ATOM
M  V30 BEGIN BOND
M  V30 1 2 2 1
M  V30 2 1 3 1
M  V30 3 1 4 3
M  V30 4 1 5 4
M  V30 5 1 6 5
M  V30 6 1 7 6
M  V30 7 1 8 4
M  V30 8 1 8 7
M  V30 9 1 4 9 CFG=1
M  V30 10 1 10 5
M  V30 11 1 11 5
M  V30 12 1 12 6
M  V30 13 1 13 6
M  V30 14 1 14 8
M  V30 15 1 15 8
M  V30 16 1 16 3
M  V30 17 1 17 1
M  V30 END BOND
M  V30 END CTAB
M  END
$$$$
R-group 431 (10972-1)
     RDKit          3D

  0  0  0  0  0  0  0  0  0  0999 V3000
M  V30 BEGIN CTAB
M  V30 COUNTS 10 10 0 0 1
M  V30 BEGIN ATOM
M  V30 1 C 72.770100 54.277000 41.937100 0
M  V30 2 C 73.825000 55.329500 41.850200 0
M  V30 3 C 74.695800 55.651300 42.922900 0
M  V30 4 N 75.670500 56.462500 42.643100 0
M  V30 5 S 75.473000 56.857900 41.039000 0
M  V30 6 N 74.088700 55.982900 40.737500 0
M  V30 7 H 71.919300 54.444200 41.281000 0
M  V30 8 H 72.337700 54.233500 42.922300 0
M  V30 9 H 74.639000 55.260000 43.935300 0
M  V30 10 R 73.304500 52.905900 41.552300 0
M  V30 END ATOM
M  V30 BEGIN BOND
M  V30 1 1 2 1
M  V30 2 1 3 2
M  V30 3 2 4 3
M  V30 4 1 5 4
M  V30 5 2 6 2
M  V30 6 1 6 5
M  V30 7 1 7 1
M  V30 8 1 8 1
M  V30 9 1 9 3
M  V30 10 1 10 1
M  V30 END BOND
M  V30 END CTAB
M  END
$$$$
R-group 432 (28898-1)
     RDKit          3D

  0  0  0  0  0  0  0  0  0  0999 V3000
M  V30 BEGIN CTAB
M  V30 COUNTS 22 23 0 0 1
M  V30 BEGIN ATOM
M  V30 1 C 73.743000 55.024600 41.377700 0 CFG=2
M  V30 2 C 73.114000 55.634800 40.065600 0
M  V30 3 C 74.029000 56.814800 39.702900 0
M  V30 4 C 75.010400 56.825700 40.874500 0 CFG=1
M  V30 5 C 76.374500 57.477600 40.606200 0
M  V30 6 F 76.872200 57.633300 41.795800 0
M  V30 7 C 74.228100 57.268800 42.147700 0
M  V30 8 C 73.503500 55.975900 42.581600 0
M  V30 9 C 75.214300 55.343000 41.141200 0
M  V30 10 H 73.148900 54.969300 39.208700 0
M  V30 11 H 72.069900 55.940700 40.124900 0
M  V30 12 H 74.540200 56.624900 38.756900 0
M  V30 13 H 73.484500 57.753800 39.600500 0
M  V30 14 H 77.055300 56.783600 40.124900 0
M  V30 15 H 76.472000 58.437900 40.098100 0
M  V30 16 H 73.527700 58.075400 41.930900 0
M  V30 17 H 74.863200 57.611900 42.964300 0
M  V30 18 H 72.473300 56.119800 42.924700 0
M  V30 19 H 74.018100 55.579300 43.457900 0
M  V30 20 H 75.839600 55.170800 42.016700 0
M  V30 21 H 75.670200 54.827700 40.297600 0
M  V30 22 R 73.449600 53.509600 41.684000 0
M  V30 END ATOM
M  V30 BEGIN BOND
M  V30 1 1 2 1
M  V30 2 1 3 2
M  V30 3 1 4 3
M  V30 4 1 4 5 CFG=3
M  V30 5 1 6 5
M  V30 6 1 7 4
M  V30 7 1 8 1
M  V30 8 1 8 7
M  V30 9 1 9 1
M  V30 10 1 9 4
M  V30 11 1 10 2
M  V30 12 1 11 2
M  V30 13 1 12 3
M  V30 14 1 13 3
M  V30 15 1 14 5
M  V30 16 1 15 5
M  V30 17 1 16 7
M  V30 18 1 17 7
M  V30 19 1 18 8
M  V30 20 1 19 8
M  V30 21 1 20 9
M  V30 22 1 21 9
M  V30 23 1 1 22 CFG=1
M  V30 END BOND
M  V30 END CTAB
M  END
$$$$
R-group 433 (2047-1)
     RDKit          3D

  0  0  0  0  0  0  0  0  0  0999 V3000
M  V30 BEGIN CTAB
M  V30 COUNTS 8 7 0 0 1
M  V30 BEGIN ATOM
M  V30 1 N 73.672200 55.054300 42.283200 0
M  V30 2 C 74.411700 56.081200 41.852300 0
M  V30 3 N 74.072600 57.212700 42.457500 0
M  V30 4 O 75.275400 56.034700 40.986700 0
M  V30 5 H 73.355900 57.235500 43.164800 0
M  V30 6 H 73.060300 55.242100 43.067600 0
M  V30 7 H 74.551900 58.057500 42.187700 0
M  V30 8 R 73.577100 53.674000 41.805300 0
M  V30 END ATOM
M  V30 BEGIN BOND
M  V30 1 1 2 1
M  V30 2 1 3 2
M  V30 3 2 4 2
M  V30 4 1 5 3
M  V30 5 1 6 1
M  V30 6 1 7 3
M  V30 7 1 8 1
M  V30 END BOND
M  V30 END CTAB
M  END
$$$$
R-group 434 (1490-1)
     RDKit          3D

  0  0  0  0  0  0  0  0  0  0999 V3000
M  V30 BEGIN CTAB
M  V30 COUNTS 12 11 0 0 1
M  V30 BEGIN ATOM
M  V30 1 C 74.844500 55.358600 42.138900 0
M  V30 2 C 74.172700 56.727800 41.875400 0 CFG=1
M  V30 3 C 73.467800 56.925700 40.528300 0
M  V30 4 O 73.296500 57.058700 42.924800 0
M  V30 5 H 75.284300 55.429300 43.134800 0
M  V30 6 H 75.710000 55.283700 41.483800 0
M  V30 7 H 74.967100 57.473700 41.915200 0
M  V30 8 H 74.084900 56.577600 39.700600 0
M  V30 9 H 72.509600 56.414100 40.492000 0
M  V30 10 H 73.259800 57.981800 40.356900 0
M  V30 11 H 72.825000 56.279800 43.185900 0
M  V30 12 R 74.019700 54.030800 42.065100 0
M  V30 END ATOM
M  V30 BEGIN BOND
M  V30 1 1 2 1
M  V30 2 1 3 2
M  V30 3 1 4 2
M  V30 4 1 5 1
M  V30 5 1 6 1
M  V30 6 1 2 7 CFG=3
M  V30 7 1 8 3
M  V30 8 1 9 3
M  V30 9 1 10 3
M  V30 10 1 11 4
M  V30 11 1 12 1
M  V30 END BOND
M  V30 END CTAB
M  END
$$$$
R-group 435 (17157-3)
     RDKit          3D

  0  0  0  0  0  0  0  0  0  0999 V3000
M  V30 BEGIN CTAB
M  V30 COUNTS 16 16 0 0 1
M  V30 BEGIN ATOM
M  V30 1 C 73.778500 55.077900 42.280800 0
M  V30 2 C 75.103300 55.669200 41.826700 0 CFG=2
M  V30 3 C 75.346200 57.133200 42.070500 0
M  V30 4 C 75.255200 56.623200 40.654900 0 CFG=2
M  V30 5 C 74.096700 57.034900 39.767500 0
M  V30 6 O 73.672300 55.923600 39.022600 0
M  V30 7 H 72.957700 55.603800 41.805400 0
M  V30 8 H 73.676500 55.311200 43.331800 0
M  V30 9 H 75.961600 55.040500 42.030600 0
M  V30 10 H 74.500700 57.674800 42.487400 0
M  V30 11 H 76.326400 57.422800 42.446100 0
M  V30 12 H 76.199700 56.528800 40.124600 0
M  V30 13 H 73.271400 57.428100 40.361200 0
M  V30 14 H 74.416600 57.813400 39.073300 0
M  V30 15 H 73.517900 55.209700 39.622700 0
M  V30 16 R 73.602800 53.556200 42.084300 0
M  V30 END ATOM
M  V30 BEGIN BOND
M  V30 1 1 2 1
M  V30 2 1 3 2
M  V30 3 1 4 2
M  V30 4 1 4 3
M  V30 5 1 5 4
M  V30 6 1 6 5
M  V30 7 1 7 1
M  V30 8 1 8 1
M  V30 9 1 2 9 CFG=3
M  V30 10 1 10 3
M  V30 11 1 11 3
M  V30 12 1 4 12 CFG=3
M  V30 13 1 13 5
M  V30 14 1 14 5
M  V30 15 1 15 6
M  V30 16 1 16 1
M  V30 END BOND
M  V30 END CTAB
M  END
$$$$
R-group 436 (2176-1)
     RDKit          3D

  0  0  0  0  0  0  0  0  0  0999 V3000
M  V30 BEGIN CTAB
M  V30 COUNTS 12 12 0 0 1
M  V30 BEGIN ATOM
M  V30 1 C 74.042000 54.941900 41.927800 0
M  V30 2 C 74.872000 55.495300 42.864800 0
M  V30 3 C 74.936000 56.858000 42.524700 0
M  V30 4 N 74.193700 57.150100 41.481500 0
M  V30 5 N 73.672600 55.982100 41.077700 0
M  V30 6 C 72.809300 56.031200 39.910500 0
M  V30 7 H 75.368400 55.020400 43.695400 0
M  V30 8 H 75.469300 57.656600 43.023800 0
M  V30 9 H 73.298800 55.547500 39.064600 0
M  V30 10 H 71.857200 55.546300 40.124200 0
M  V30 11 H 72.602600 57.065800 39.631600 0
M  V30 12 R 73.587800 53.505000 41.834500 0
M  V30 END ATOM
M  V30 BEGIN BOND
M  V30 1 2 2 1
M  V30 2 1 3 2
M  V30 3 2 4 3
M  V30 4 1 5 1
M  V30 5 1 5 4
M  V30 6 1 6 5
M  V30 7 1 7 2
M  V30 8 1 8 3
M  V30 9 1 9 6
M  V30 10 1 10 6
M  V30 11 1 11 6
M  V30 12 1 12 1
M  V30 END BOND
M  V30 END CTAB
M  END
$$$$
R-group 437 (5070-1)
     RDKit          3D

  0  0  0  0  0  0  0  0  0  0999 V3000
M  V30 BEGIN CTAB
M  V30 COUNTS 12 11 0 0 1
M  V30 BEGIN ATOM
M  V30 1 O 73.672300 55.097100 42.085300 0
M  V30 2 C 74.907400 55.721500 41.755500 0
M  V30 3 C 74.649100 57.101700 41.121300 0
M  V30 4 C 73.872500 57.072000 39.786700 0
M  V30 5 F 74.472300 56.294700 38.888600 0
M  V30 6 F 72.614800 56.671400 39.965800 0
M  V30 7 H 75.471400 55.844200 42.680700 0
M  V30 8 H 75.541400 55.124600 41.108400 0
M  V30 9 H 74.113000 57.731300 41.832300 0
M  V30 10 H 75.614400 57.584100 40.958300 0
M  V30 11 H 73.809500 58.058000 39.324900 0
M  V30 12 R 73.510700 53.698900 41.831300 0
M  V30 END ATOM
M  V30 BEGIN BOND
M  V30 1 1 2 1
M  V30 2 1 3 2
M  V30 3 1 4 3
M  V30 4 1 5 4
M  V30 5 1 6 4
M  V30 6 1 7 2
M  V30 7 1 8 2
M  V30 8 1 9 3
M  V30 9 1 10 3
M  V30 10 1 11 4
M  V30 11 1 12 1
M  V30 END BOND
M  V30 END CTAB
M  END
$$$$
R-group 438 (4060-2)
     RDKit          3D

  0  0  0  0  0  0  0  0  0  0999 V3000
M  V30 BEGIN CTAB
M  V30 COUNTS 16 17 0 0 1
M  V30 BEGIN ATOM
M  V30 1 C 74.256600 55.350400 41.723100 0 CFG=1
M  V30 2 C 75.621300 55.637400 41.059200 0
M  V30 3 C 75.385100 56.652100 39.971900 0 CFG=1
M  V30 4 C 74.472300 56.356900 38.789100 0
M  V30 5 C 73.973500 57.096500 39.992600 0 CFG=1
M  V30 6 C 73.272200 56.344300 41.064000 0
M  V30 7 H 74.358400 55.669700 42.761800 0
M  V30 8 H 76.328100 56.046000 41.782800 0
M  V30 9 H 76.072200 54.763900 40.614900 0
M  V30 10 H 76.129100 57.439900 39.885800 0
M  V30 11 H 74.050100 55.371600 38.636800 0
M  V30 12 H 74.740600 56.858000 37.870800 0
M  V30 13 H 73.672200 58.124000 39.817400 0
M  V30 14 H 72.463500 55.859600 40.524700 0
M  V30 15 H 72.872300 57.046000 41.796300 0
M  V30 16 R 73.770500 53.859800 41.778600 0
M  V30 END ATOM
M  V30 BEGIN BOND
M  V30 1 1 2 1
M  V30 2 1 3 2
M  V30 3 1 4 3
M  V30 4 1 5 3
M  V30 5 1 5 4
M  V30 6 1 6 1
M  V30 7 1 6 5
M  V30 8 1 1 7 CFG=1
M  V30 9 1 8 2
M  V30 10 1 9 2
M  V30 11 1 3 10 CFG=3
M  V30 12 1 11 4
M  V30 13 1 12 4
M  V30 14 1 5 13 CFG=3
M  V30 15 1 14 6
M  V30 16 1 15 6
M  V30 17 1 16 1
M  V30 END BOND
M  V30 END CTAB
M  END
$$$$
R-group 439 (10106-8)
     RDKit          3D

  0  0  0  0  0  0  0  0  0  0999 V3000
M  V30 BEGIN CTAB
M  V30 COUNTS 17 17 0 0 1
M  V30 BEGIN ATOM
M  V30 1 C 74.054100 55.545500 41.587500 0 CFG=2
M  V30 2 C 75.399700 55.879400 40.899000 0
M  V30 3 C 76.019600 57.081800 41.630400 0
M  V30 4 C 75.398100 57.029500 43.020500 0 CFG=2
M  V30 5 O 76.072200 56.058000 43.724700 0
M  V30 6 C 73.988900 56.496400 42.811700 0 CFG=1
M  V30 7 O 73.272300 57.658100 42.476800 0
M  V30 8 H 73.275500 55.900800 40.910200 0
M  V30 9 H 76.072200 55.033700 40.977800 0
M  V30 10 H 75.271600 56.092900 39.837700 0
M  V30 11 H 75.754900 58.020700 41.150600 0
M  V30 12 H 77.108700 57.053600 41.648600 0
M  V30 13 H 75.452000 57.954100 43.601700 0
M  V30 14 H 73.550200 56.052300 43.708100 0
M  V30 15 H 75.993800 55.247200 43.245900 0
M  V30 16 H 73.697500 58.074600 41.741400 0
M  V30 17 R 73.716400 54.014900 41.816900 0
M  V30 END ATOM
M  V30 BEGIN BOND
M  V30 1 1 2 1
M  V30 2 1 3 2
M  V30 3 1 4 3
M  V30 4 1 5 4
M  V30 5 1 6 1
M  V30 6 1 6 4
M  V30 7 1 7 6
M  V30 8 1 1 8 CFG=3
M  V30 9 1 9 2
M  V30 10 1 10 2
M  V30 11 1 11 3
M  V30 12 1 12 3
M  V30 13 1 4 13 CFG=1
M  V30 14 1 6 14 CFG=1
M  V30 15 1 15 5
M  V30 16 1 16 7
M  V30 17 1 17 1
M  V30 END BOND
M  V30 END CTAB
M  END
$$$$
R-group 440 (39107-1)
     RDKit          3D

  0  0  0  0  0  0  0  0  0  0999 V3000
M  V30 BEGIN CTAB
M  V30 COUNTS 18 18 0 0 1
M  V30 BEGIN ATOM
M  V30 1 C 73.646000 54.904200 42.315400 0
M  V30 2 C 75.012700 55.541700 42.020000 0
M  V30 3 C 74.944800 56.901900 41.341600 0
M  V30 4 C 76.366100 57.435300 41.234700 0
M  V30 5 C 73.993000 57.166900 40.185600 0
M  V30 6 C 73.733700 57.798400 41.550100 0
M  V30 7 H 72.872400 55.317900 41.687200 0
M  V30 8 H 73.360600 55.191000 43.324600 0
M  V30 9 H 75.543200 55.648100 42.967600 0
M  V30 10 H 75.641700 54.890000 41.420600 0
M  V30 11 H 76.445700 58.466900 40.919200 0
M  V30 12 H 76.872100 57.355600 42.193700 0
M  V30 13 H 76.898900 56.851000 40.492900 0
M  V30 14 H 74.355900 57.764000 39.345400 0
M  V30 15 H 73.339900 56.358100 39.868800 0
M  V30 16 H 72.889600 57.421800 42.120800 0
M  V30 17 H 73.896600 58.852800 41.724600 0
M  V30 18 R 73.542100 53.393500 42.096300 0
M  V30 END ATOM
M  V30 BEGIN BOND
M  V30 1 1 2 1
M  V30 2 1 3 2
M  V30 3 1 4 3
M  V30 4 1 5 3
M  V30 5 1 6 3
M  V30 6 1 6 5
M  V30 7 1 7 1
M  V30 8 1 8 1
M  V30 9 1 9 2
M  V30 10 1 10 2
M  V30 11 1 11 4
M  V30 12 1 12 4
M  V30 13 1 13 4
M  V30 14 1 14 5
M  V30 15 1 15 5
M  V30 16 1 16 6
M  V30 17 1 17 6
M  V30 18 1 18 1
M  V30 END BOND
M  V30 END CTAB
M  END
$$$$
R-group 441 (39325-1)
     RDKit          3D

  0  0  0  0  0  0  0  0  0  0999 V3000
M  V30 BEGIN CTAB
M  V30 COUNTS 18 18 0 0 1
M  V30 BEGIN ATOM
M  V30 1 C 73.547500 54.831200 42.337900 0
M  V30 2 C 73.767200 55.919600 41.273700 0
M  V30 3 C 74.710400 56.671700 42.221600 0
M  V30 4 C 74.069100 57.855400 42.928000 0
M  V30 5 C 76.044700 57.089500 41.604600 0
M  V30 6 C 74.776700 55.390100 43.048900 0
M  V30 7 H 72.671700 55.120500 42.921900 0
M  V30 8 H 74.286300 55.602000 40.375200 0
M  V30 9 H 72.872500 56.477100 40.996400 0
M  V30 10 H 73.802600 58.635000 42.214100 0
M  V30 11 H 73.140400 57.563500 43.420300 0
M  V30 12 H 74.718300 58.256200 43.714100 0
M  V30 13 H 75.902800 57.657800 40.690100 0
M  V30 14 H 76.662100 57.660800 42.296100 0
M  V30 15 H 76.626300 56.217600 41.310700 0
M  V30 16 H 74.648800 55.503200 44.122800 0
M  V30 17 H 75.672100 54.820000 42.832600 0
M  V30 18 R 73.466600 53.332500 41.990900 0
M  V30 END ATOM
M  V30 BEGIN BOND
M  V30 1 1 2 1
M  V30 2 1 3 2
M  V30 3 1 4 3
M  V30 4 1 5 3
M  V30 5 1 6 1
M  V30 6 1 6 3
M  V30 7 1 7 1
M  V30 8 1 8 2
M  V30 9 1 9 2
M  V30 10 1 10 4
M  V30 11 1 11 4
M  V30 12 1 12 4
M  V30 13 1 13 5
M  V30 14 1 14 5
M  V30 15 1 15 5
M  V30 16 1 16 6
M  V30 17 1 17 6
M  V30 18 1 18 1
M  V30 END BOND
M  V30 END CTAB
M  END
$$$$
R-group 442 (18603-1)
     RDKit          3D

  0  0  0  0  0  0  0  0  0  0999 V3000
M  V30 BEGIN CTAB
M  V30 COUNTS 15 15 0 0 1
M  V30 BEGIN ATOM
M  V30 1 C 72.637800 54.196500 42.023800 0
M  V30 2 C 73.676200 55.267900 41.806500 0
M  V30 3 C 73.765500 55.879700 40.539500 0
M  V30 4 F 72.809400 55.693800 39.597800 0
M  V30 5 C 74.870200 56.675800 40.243600 0
M  V30 6 C 75.860500 56.907200 41.213000 0
M  V30 7 C 75.661800 56.460300 42.522900 0
M  V30 8 F 76.472000 56.850500 43.524900 0
M  V30 9 C 74.585500 55.637000 42.822200 0
M  V30 10 F 74.471800 55.217900 44.098300 0
M  V30 11 H 71.775700 54.449500 41.404600 0
M  V30 12 H 72.237900 54.213700 43.022700 0
M  V30 13 H 74.937600 57.122900 39.265600 0
M  V30 14 H 76.702700 57.548600 40.986500 0
M  V30 15 R 73.189500 52.801300 41.668000 0
M  V30 END ATOM
M  V30 BEGIN BOND
M  V30 1 1 2 1
M  V30 2 2 3 2
M  V30 3 1 4 3
M  V30 4 1 5 3
M  V30 5 2 6 5
M  V30 6 1 7 6
M  V30 7 1 8 7
M  V30 8 1 9 2
M  V30 9 2 9 7
M  V30 10 1 10 9
M  V30 11 1 11 1
M  V30 12 1 12 1
M  V30 13 1 13 5
M  V30 14 1 14 6
M  V30 15 1 15 1
M  V30 END BOND
M  V30 END CTAB
M  END
$$$$
R-group 443 (3273-1)
     RDKit          3D

  0  0  0  0  0  0  0  0  0  0999 V3000
M  V30 BEGIN CTAB
M  V30 COUNTS 16 16 0 0 1
M  V30 BEGIN ATOM
M  V30 1 C 74.112500 55.216300 41.868900 0 CFG=1
M  V30 2 C 73.748000 56.002700 40.603900 0
M  V30 3 C 73.280800 57.257900 40.605100 0
M  V30 4 C 73.118000 58.080000 41.865700 0
M  V30 5 C 73.741300 57.437700 43.106400 0
M  V30 6 C 73.577500 55.920600 43.139000 0
M  V30 7 H 75.202500 55.269100 41.893100 0
M  V30 8 H 73.892100 55.537500 39.644100 0
M  V30 9 H 73.051300 57.738100 39.668000 0
M  V30 10 H 73.565100 59.050100 41.725500 0
M  V30 11 H 72.072000 58.281400 42.031900 0
M  V30 12 H 74.808900 57.658500 43.147600 0
M  V30 13 H 73.272200 57.877300 43.988200 0
M  V30 14 H 72.525700 55.687200 43.308900 0
M  V30 15 H 74.100300 55.538900 44.010800 0
M  V30 16 R 73.708600 53.703600 41.859700 0
M  V30 END ATOM
M  V30 BEGIN BOND
M  V30 1 1 2 1
M  V30 2 2 3 2
M  V30 3 1 4 3
M  V30 4 1 5 4
M  V30 5 1 6 1
M  V30 6 1 6 5
M  V30 7 1 1 7 CFG=1
M  V30 8 1 8 2
M  V30 9 1 9 3
M  V30 10 1 10 4
M  V30 11 1 11 4
M  V30 12 1 12 5
M  V30 13 1 13 5
M  V30 14 1 14 6
M  V30 15 1 15 6
M  V30 16 1 16 1
M  V30 END BOND
M  V30 END CTAB
M  END
$$$$
R-group 444 (172-2)
     RDKit          3D

  0  0  0  0  0  0  0  0  0  0999 V3000
M  V30 BEGIN CTAB
M  V30 COUNTS 14 13 0 0 1
M  V30 BEGIN ATOM
M  V30 1 C 73.272700 57.657600 41.392400 0
M  V30 2 C 73.432000 56.203000 40.934800 0
M  V30 3 C 73.910600 55.243300 42.058600 0 CFG=2
M  V30 4 C 75.378800 55.562800 42.428600 0
M  V30 5 H 72.905200 58.284500 40.579200 0
M  V30 6 H 72.572400 57.743600 42.221800 0
M  V30 7 H 74.222900 58.065200 41.723100 0
M  V30 8 H 74.130300 56.169600 40.097900 0
M  V30 9 H 72.473300 55.894400 40.524400 0
M  V30 10 H 73.325200 55.494300 42.945100 0
M  V30 11 H 76.069600 55.260500 41.642700 0
M  V30 12 H 75.545200 56.622800 42.610500 0
M  V30 13 H 75.672000 55.071400 43.353900 0
M  V30 14 R 73.621700 53.716700 41.793900 0
M  V30 END ATOM
M  V30 BEGIN BOND
M  V30 1 1 2 1
M  V30 2 1 3 2
M  V30 3 1 4 3
M  V30 4 1 5 1
M  V30 5 1 6 1
M  V30 6 1 7 1
M  V30 7 1 8 2
M  V30 8 1 9 2
M  V30 9 1 3 10 CFG=1
M  V30 10 1 11 4
M  V30 11 1 12 4
M  V30 12 1 13 4
M  V30 13 1 14 3
M  V30 END BOND
M  V30 END CTAB
M  END
$$$$
R-group 445 (43290-1)
     RDKit          3D

  0  0  0  0  0  0  0  0  0  0999 V3000
M  V30 BEGIN CTAB
M  V30 COUNTS 19 19 0 0 1
M  V30 BEGIN ATOM
M  V30 1 C 73.272200 54.873500 42.072500 0
M  V30 2 C 74.403800 55.913400 42.267100 0 CFG=1
M  V30 3 C 73.751300 57.235700 42.731200 0
M  V30 4 O 75.272200 55.543400 43.309800 0
M  V30 5 C 75.260600 56.031700 41.009300 0
M  V30 6 C 74.834300 56.896500 39.847300 0
M  V30 7 C 76.087600 57.228500 40.634900 0
M  V30 8 H 72.684000 55.257700 41.246600 0
M  V30 9 H 72.602100 54.868300 42.924700 0
M  V30 10 H 73.054600 57.635400 41.996100 0
M  V30 11 H 73.180300 57.082500 43.648400 0
M  V30 12 H 74.472400 58.017000 42.952900 0
M  V30 13 H 75.742400 55.090000 40.753300 0
M  V30 14 H 74.916900 56.459600 38.855100 0
M  V30 15 H 73.983500 57.566100 39.965700 0
M  V30 16 H 76.080800 58.058000 41.324700 0
M  V30 17 H 77.051300 57.037800 40.175600 0
M  V30 18 H 75.910000 56.230900 43.419200 0
M  V30 19 R 73.552300 53.417800 41.650400 0
M  V30 END ATOM
M  V30 BEGIN BOND
M  V30 1 1 2 1
M  V30 2 1 3 2
M  V30 3 1 2 4 CFG=1
M  V30 4 1 5 2
M  V30 5 1 6 5
M  V30 6 1 7 5
M  V30 7 1 7 6
M  V30 8 1 8 1
M  V30 9 1 9 1
M  V30 10 1 10 3
M  V30 11 1 11 3
M  V30 12 1 12 3
M  V30 13 1 13 5
M  V30 14 1 14 6
M  V30 15 1 15 6
M  V30 16 1 16 7
M  V30 17 1 17 7
M  V30 18 1 18 4
M  V30 19 1 19 1
M  V30 END BOND
M  V30 END CTAB
M  END
$$$$
R-group 446 (783-1)
     RDKit          3D

  0  0  0  0  0  0  0  0  0  0999 V3000
M  V30 BEGIN CTAB
M  V30 COUNTS 8 8 0 0 1
M  V30 BEGIN ATOM
M  V30 1 C 74.137000 55.075900 41.890200 0
M  V30 2 C 73.991600 56.037400 40.921300 0
M  V30 3 O 74.615600 57.178800 41.324500 0
M  V30 4 C 75.153500 56.857800 42.524500 0
M  V30 5 N 74.872300 55.630300 42.924400 0
M  V30 6 H 73.512200 56.069400 39.954300 0
M  V30 7 H 75.724600 57.568700 43.104000 0
M  V30 8 R 73.673700 53.642400 41.916500 0
M  V30 END ATOM
M  V30 BEGIN BOND
M  V30 1 2 2 1
M  V30 2 1 3 2
M  V30 3 1 4 3
M  V30 4 1 5 1
M  V30 5 2 5 4
M  V30 6 1 6 2
M  V30 7 1 7 4
M  V30 8 1 8 1
M  V30 END BOND
M  V30 END CTAB
M  END
$$$$
R-group 447 (14894-1)
     RDKit          3D

  0  0  0  0  0  0  0  0  0  0999 V3000
M  V30 BEGIN CTAB
M  V30 COUNTS 14 14 0 0 1
M  V30 BEGIN ATOM
M  V30 1 N 73.676200 54.702500 41.475600 0
M  V30 2 C 73.289200 55.545500 42.583100 0
M  V30 3 C 73.561100 56.910500 41.966900 0 CFG=1
M  V30 4 F 74.046600 57.658700 42.925000 0
M  V30 5 C 74.631100 56.684800 40.911100 0 CFG=2
M  V30 6 F 74.103500 56.857100 39.701700 0
M  V30 7 C 74.988000 55.226600 41.108800 0
M  V30 8 H 72.271300 55.374000 42.929300 0
M  V30 9 H 73.952900 55.373900 43.432400 0
M  V30 10 H 72.679200 57.407200 41.565000 0
M  V30 11 H 75.486100 57.351200 41.004600 0
M  V30 12 H 75.689200 55.112300 41.934800 0
M  V30 13 H 75.443700 54.820100 40.216100 0
M  V30 14 R 73.539400 53.289100 41.770700 0
M  V30 END ATOM
M  V30 BEGIN BOND
M  V30 1 1 2 1
M  V30 2 1 3 2
M  V30 3 1 4 3
M  V30 4 1 5 3
M  V30 5 1 6 5
M  V30 6 1 7 1
M  V30 7 1 7 5
M  V30 8 1 8 2
M  V30 9 1 9 2
M  V30 10 1 3 10 CFG=3
M  V30 11 1 5 11 CFG=1
M  V30 12 1 12 7
M  V30 13 1 13 7
M  V30 14 1 14 1
M  V30 END BOND
M  V30 END CTAB
M  END
$$$$
R-group 448 (37771-3)
     RDKit          3D

  0  0  0  0  0  0  0  0  0  0999 V3000
M  V30 BEGIN CTAB
M  V30 COUNTS 18 17 0 0 1
M  V30 BEGIN ATOM
M  V30 1 C 76.308000 56.974300 41.580000 0
M  V30 2 C 75.470500 55.751500 41.175900 0
M  V30 3 C 74.339300 55.418800 42.163400 0 CFG=1
M  V30 4 C 73.272300 56.530800 42.238500 0 CFG=2
M  V30 5 C 72.871900 57.137900 40.871100 0
M  V30 6 O 73.713900 57.655400 42.924400 0
M  V30 7 H 77.262900 57.050900 41.065300 0
M  V30 8 H 75.772800 57.877900 41.322900 0
M  V30 9 H 76.473200 56.991300 42.654500 0
M  V30 10 H 76.070800 54.861900 41.132100 0
M  V30 11 H 75.101100 55.886300 40.161700 0
M  V30 12 H 74.797600 55.436100 43.152500 0
M  V30 13 H 72.472400 56.200400 42.923100 0
M  V30 14 H 72.448300 56.403900 40.191500 0
M  V30 15 H 72.135200 57.935200 40.984700 0
M  V30 16 H 73.703800 57.603800 40.346700 0
M  V30 17 H 74.471400 57.998800 42.479700 0
M  V30 18 R 73.776200 53.954400 42.010700 0
M  V30 END ATOM
M  V30 BEGIN BOND
M  V30 1 1 2 1
M  V30 2 1 3 2
M  V30 3 1 4 3
M  V30 4 1 5 4
M  V30 5 1 6 4
M  V30 6 1 7 1
M  V30 7 1 8 1
M  V30 8 1 9 1
M  V30 9 1 10 2
M  V30 10 1 11 2
M  V30 11 1 3 12 CFG=1
M  V30 12 1 4 13 CFG=1
M  V30 13 1 14 5
M  V30 14 1 15 5
M  V30 15 1 16 5
M  V30 16 1 17 6
M  V30 17 1 18 3
M  V30 END BOND
M  V30 END CTAB
M  END
$$$$
R-group 449 (35688-2)
     RDKit          3D

  0  0  0  0  0  0  0  0  0  0999 V3000
M  V30 BEGIN CTAB
M  V30 COUNTS 16 16 0 0 1
M  V30 BEGIN ATOM
M  V30 1 C 74.089700 55.091500 41.677100 0 CFG=2
M  V30 2 C 73.563000 55.851300 42.913200 0
M  V30 3 C 73.787000 57.363800 42.836900 0
M  V30 4 O 73.272000 57.848900 41.610800 0
M  V30 5 C 73.990300 57.338200 40.495700 0
M  V30 6 C 73.751600 55.843400 40.346800 0 CFG=2
M  V30 7 F 72.524200 55.682400 39.848400 0
M  V30 8 H 75.177400 55.153300 41.737900 0
M  V30 9 H 72.501200 55.659000 43.055600 0
M  V30 10 H 74.072400 55.484800 43.802800 0
M  V30 11 H 74.844000 57.614000 42.938100 0
M  V30 12 H 73.264000 57.860900 43.653400 0
M  V30 13 H 75.058600 57.518700 40.628200 0
M  V30 14 H 73.673800 57.863800 39.594000 0
M  V30 15 H 74.402300 55.515400 39.542600 0
M  V30 16 R 73.719300 53.575700 41.766200 0
M  V30 END ATOM
M  V30 BEGIN BOND
M  V30 1 1 2 1
M  V30 2 1 3 2
M  V30 3 1 4 3
M  V30 4 1 5 4
M  V30 5 1 6 1
M  V30 6 1 6 5
M  V30 7 1 7 6
M  V30 8 1 1 8 CFG=1
M  V30 9 1 9 2
M  V30 10 1 10 2
M  V30 11 1 11 3
M  V30 12 1 12 3
M  V30 13 1 13 5
M  V30 14 1 14 5
M  V30 15 1 6 15 CFG=3
M  V30 16 1 16 1
M  V30 END BOND
M  V30 END CTAB
M  END
$$$$
R-group 450 (11056-1)
     RDKit          3D

  0  0  0  0  0  0  0  0  0  0999 V3000
M  V30 BEGIN CTAB
M  V30 COUNTS 11 11 0 0 1
M  V30 BEGIN ATOM
M  V30 1 C 72.817300 54.304500 41.923400 0
M  V30 2 C 73.863300 55.342600 41.699100 0
M  V30 3 C 74.155800 56.052900 40.573700 0
M  V30 4 C 75.310600 56.857700 40.768000 0
M  V30 5 N 75.861300 56.851700 41.957300 0
M  V30 6 S 74.996500 55.794200 42.924000 0
M  V30 7 H 71.953100 54.457700 41.279400 0
M  V30 8 H 72.423600 54.374100 42.924800 0
M  V30 9 H 73.624500 56.005200 39.635700 0
M  V30 10 H 75.761600 57.486400 40.023700 0
M  V30 11 R 73.302600 52.893500 41.624200 0
M  V30 END ATOM
M  V30 BEGIN BOND
M  V30 1 1 2 1
M  V30 2 2 3 2
M  V30 3 1 4 3
M  V30 4 2 5 4
M  V30 5 1 6 2
M  V30 6 1 6 5
M  V30 7 1 7 1
M  V30 8 1 8 1
M  V30 9 1 9 3
M  V30 10 1 10 4
M  V30 11 1 11 1
M  V30 END BOND
M  V30 END CTAB
M  END
$$$$
R-group 451 (10834-1)
     RDKit          3D

  0  0  0  0  0  0  0  0  0  0999 V3000
M  V30 BEGIN CTAB
M  V30 COUNTS 15 15 0 0 1
M  V30 BEGIN ATOM
M  V30 1 C 73.234000 54.886400 42.237600 0
M  V30 2 C 74.341800 55.732000 42.852600 0
M  V30 3 C 75.762900 55.719500 42.290500 0
M  V30 4 C 75.402900 56.910600 41.434900 0
M  V30 5 F 76.399900 57.786100 41.314000 0
M  V30 6 F 74.869400 56.611400 40.250300 0
M  V30 7 C 74.357300 57.237600 42.511500 0
M  V30 8 H 72.872300 55.453500 41.384900 0
M  V30 9 H 72.389300 54.836300 42.924400 0
M  V30 10 H 74.382400 55.574300 43.928600 0
M  V30 11 H 76.472300 56.005900 43.064900 0
M  V30 12 H 76.071900 54.853500 41.720400 0
M  V30 13 H 73.420200 57.647400 42.132700 0
M  V30 14 H 74.755400 57.844600 43.324700 0
M  V30 15 R 73.543100 53.461700 41.713400 0
M  V30 END ATOM
M  V30 BEGIN BOND
M  V30 1 1 2 1
M  V30 2 1 3 2
M  V30 3 1 4 3
M  V30 4 1 5 4
M  V30 5 1 6 4
M  V30 6 1 7 2
M  V30 7 1 7 4
M  V30 8 1 8 1
M  V30 9 1 9 1
M  V30 10 1 10 2
M  V30 11 1 11 3
M  V30 12 1 12 3
M  V30 13 1 13 7
M  V30 14 1 14 7
M  V30 15 1 15 1
M  V30 END BOND
M  V30 END CTAB
M  END
$$$$
R-group 452 (16360-1)
     RDKit          3D

  0  0  0  0  0  0  0  0  0  0999 V3000
M  V30 BEGIN CTAB
M  V30 COUNTS 16 16 0 0 1
M  V30 BEGIN ATOM
M  V30 1 C 73.957600 55.118900 41.735800 0
M  V30 2 F 75.272200 55.227500 41.582800 0
M  V30 3 C 73.591200 55.899400 43.009800 0
M  V30 4 C 73.899900 57.397400 42.875000 0
M  V30 5 O 73.272200 57.935900 41.724700 0
M  V30 6 C 73.723600 57.338700 40.520800 0
M  V30 7 C 73.364700 55.854400 40.506300 0
M  V30 8 H 72.532200 55.772400 43.240000 0
M  V30 9 H 74.138800 55.499800 43.858100 0
M  V30 10 H 73.507900 57.945600 43.726000 0
M  V30 11 H 74.975600 57.574100 42.841200 0
M  V30 12 H 73.271500 57.850600 39.672600 0
M  V30 13 H 74.803500 57.449500 40.421600 0
M  V30 14 H 73.751500 55.451200 39.573100 0
M  V30 15 H 72.290600 55.727200 40.449900 0
M  V30 16 R 73.604300 53.595100 41.834000 0
M  V30 END ATOM
M  V30 BEGIN BOND
M  V30 1 1 2 1
M  V30 2 1 3 1
M  V30 3 1 4 3
M  V30 4 1 5 4
M  V30 5 1 6 5
M  V30 6 1 7 1
M  V30 7 1 7 6
M  V30 8 1 8 3
M  V30 9 1 9 3
M  V30 10 1 10 4
M  V30 11 1 11 4
M  V30 12 1 12 6
M  V30 13 1 13 6
M  V30 14 1 14 7
M  V30 15 1 15 7
M  V30 16 1 16 1
M  V30 END BOND
M  V30 END CTAB
M  END
$$$$
R-group 453 (4000-1)
     RDKit          3D

  0  0  0  0  0  0  0  0  0  0999 V3000
M  V30 BEGIN CTAB
M  V30 COUNTS 12 11 0 0 1
M  V30 BEGIN ATOM
M  V30 1 C 74.313700 55.282500 41.294600 0 CFG=1
M  V30 2 C 73.540100 56.016000 40.170200 0
M  V30 3 C 74.452800 56.248400 42.467300 0
M  V30 4 N 75.673500 56.459400 42.924500 0
M  V30 5 O 73.487600 56.847600 42.924100 0
M  V30 6 H 75.319900 55.124500 40.901400 0
M  V30 7 H 73.873300 57.049200 40.056700 0
M  V30 8 H 73.683600 55.546800 39.198400 0
M  V30 9 H 72.471300 56.041100 40.367900 0
M  V30 10 H 76.459200 55.985100 42.507900 0
M  V30 11 H 75.814400 57.135800 43.662600 0
M  V30 12 R 73.744800 53.879800 41.713400 0
M  V30 END ATOM
M  V30 BEGIN BOND
M  V30 1 1 2 1
M  V30 2 1 3 1
M  V30 3 1 4 3
M  V30 4 2 5 3
M  V30 5 1 1 6 CFG=3
M  V30 6 1 7 2
M  V30 7 1 8 2
M  V30 8 1 9 2
M  V30 9 1 10 4
M  V30 10 1 11 4
M  V30 11 1 12 1
M  V30 END BOND
M  V30 END CTAB
M  END
$$$$
R-group 454 (2325-2)
     RDKit          3D

  0  0  0  0  0  0  0  0  0  0999 V3000
M  V30 BEGIN CTAB
M  V30 COUNTS 16 16 0 0 1
M  V30 BEGIN ATOM
M  V30 1 C 73.262800 54.844500 42.228900 0
M  V30 2 C 74.382100 55.748400 42.773100 0 CFG=2
M  V30 3 C 73.836100 57.134600 43.107800 0
M  V30 4 C 73.759000 57.783800 41.747300 0
M  V30 5 C 75.045300 57.257800 41.104100 0
M  V30 6 O 75.309600 56.001300 41.723600 0
M  V30 7 H 72.872300 55.370400 41.371400 0
M  V30 8 H 72.433900 54.773900 42.924400 0
M  V30 9 H 74.877400 55.306600 43.638000 0
M  V30 10 H 72.882400 57.114200 43.637000 0
M  V30 11 H 74.560200 57.681700 43.714900 0
M  V30 12 H 72.881700 57.460200 41.189700 0
M  V30 13 H 73.673100 58.859100 41.813600 0
M  V30 14 H 74.958000 57.160000 40.021300 0
M  V30 15 H 75.895400 57.904100 41.324300 0
M  V30 16 R 73.599500 53.452600 41.684700 0
M  V30 END ATOM
M  V30 BEGIN BOND
M  V30 1 1 2 1
M  V30 2 1 3 2
M  V30 3 1 4 3
M  V30 4 1 5 4
M  V30 5 1 6 2
M  V30 6 1 6 5
M  V30 7 1 7 1
M  V30 8 1 8 1
M  V30 9 1 2 9 CFG=1
M  V30 10 1 10 3
M  V30 11 1 11 3
M  V30 12 1 12 4
M  V30 13 1 13 4
M  V30 14 1 14 5
M  V30 15 1 15 5
M  V30 16 1 16 1
M  V30 END BOND
M  V30 END CTAB
M  END
$$$$
R-group 455 (13475-1)
     RDKit          3D

  0  0  0  0  0  0  0  0  0  0999 V3000
M  V30 BEGIN CTAB
M  V30 COUNTS 10 10 0 0 1
M  V30 BEGIN ATOM
M  V30 1 N 74.157500 55.081500 41.840800 0
M  V30 2 C 74.819100 55.903100 42.858000 0
M  V30 3 C 74.861200 57.049400 41.850600 0 CFG=1
M  V30 4 F 76.072600 57.253400 41.326300 0
M  V30 5 C 74.072300 56.121900 40.935300 0
M  V30 6 O 73.571600 56.209700 39.834400 0
M  V30 7 H 74.176100 56.066200 43.723100 0
M  V30 8 H 75.806200 55.553700 43.160200 0
M  V30 9 H 74.367600 57.969500 42.162000 0
M  V30 10 R 73.715000 53.684500 41.865900 0
M  V30 END ATOM
M  V30 BEGIN BOND
M  V30 1 1 2 1
M  V30 2 1 3 2
M  V30 3 1 4 3
M  V30 4 1 5 1
M  V30 5 1 5 3
M  V30 6 2 6 5
M  V30 7 1 7 2
M  V30 8 1 8 2
M  V30 9 1 3 9 CFG=1
M  V30 10 1 10 1
M  V30 END BOND
M  V30 END CTAB
M  END
$$$$
R-group 456 (10599-2)
     RDKit          3D

  0  0  0  0  0  0  0  0  0  0999 V3000
M  V30 BEGIN CTAB
M  V30 COUNTS 15 15 0 0 1
M  V30 BEGIN ATOM
M  V30 1 C 73.918100 55.260800 42.048800 0 CFG=1
M  V30 2 C 75.376300 55.588200 42.452400 0
M  V30 3 C 73.409000 56.185800 40.935900 0
M  V30 4 C 73.532900 57.684300 40.999700 0
M  V30 5 C 74.314100 56.908000 39.959800 0
M  V30 6 H 73.321500 55.517700 42.925800 0
M  V30 7 H 76.072100 55.273900 41.679600 0
M  V30 8 H 75.532300 56.652300 42.622600 0
M  V30 9 H 75.669700 55.104100 43.381300 0
M  V30 10 H 72.470700 55.867700 40.508500 0
M  V30 11 H 72.681800 58.267900 40.653500 0
M  V30 12 H 74.072800 58.115500 41.838500 0
M  V30 13 H 75.392200 56.856100 40.088300 0
M  V30 14 H 73.978900 56.984200 38.926900 0
M  V30 15 R 73.623000 53.735000 41.778100 0
M  V30 END ATOM
M  V30 BEGIN BOND
M  V30 1 1 2 1
M  V30 2 1 3 1
M  V30 3 1 4 3
M  V30 4 1 5 3
M  V30 5 1 5 4
M  V30 6 1 1 6 CFG=1
M  V30 7 1 7 2
M  V30 8 1 8 2
M  V30 9 1 9 2
M  V30 10 1 10 3
M  V30 11 1 11 4
M  V30 12 1 12 4
M  V30 13 1 13 5
M  V30 14 1 14 5
M  V30 15 1 15 1
M  V30 END BOND
M  V30 END CTAB
M  END
$$$$
R-group 457 (10839-1)
     RDKit          3D

  0  0  0  0  0  0  0  0  0  0999 V3000
M  V30 BEGIN CTAB
M  V30 COUNTS 13 13 0 0 1
M  V30 BEGIN ATOM
M  V30 1 C 73.846100 55.170400 42.522500 0
M  V30 2 C 75.103700 55.725700 41.899300 0 CFG=2
M  V30 3 C 75.423200 57.215100 41.930400 0
M  V30 4 C 75.840500 56.937700 40.481500 0
M  V30 5 O 74.967000 55.796700 40.467900 0
M  V30 6 H 72.953000 55.786300 42.292900 0
M  V30 7 H 73.958100 55.275000 43.593400 0
M  V30 8 H 75.991200 55.152200 42.146200 0
M  V30 9 H 74.543000 57.851200 42.006700 0
M  V30 10 H 76.215300 57.507000 42.601500 0
M  V30 11 H 75.566300 57.648300 39.720400 0
M  V30 12 H 76.873900 56.656300 40.376800 0
M  V30 13 R 73.559000 53.690900 42.164700 0
M  V30 END ATOM
M  V30 BEGIN BOND
M  V30 1 1 2 1
M  V30 2 1 3 2
M  V30 3 1 4 3
M  V30 4 1 5 2
M  V30 5 1 5 4
M  V30 6 1 6 1
M  V30 7 1 7 1
M  V30 8 1 2 8 CFG=3
M  V30 9 1 9 3
M  V30 10 1 10 3
M  V30 11 1 11 4
M  V30 12 1 12 4
M  V30 13 1 13 1
M  V30 END BOND
M  V30 END CTAB
M  END
$$$$
R-group 458 (22341-8)
     RDKit          3D

  0  0  0  0  0  0  0  0  0  0999 V3000
M  V30 BEGIN CTAB
M  V30 COUNTS 18 18 0 0 1
M  V30 BEGIN ATOM
M  V30 1 C 73.548000 54.687700 41.779600 0 CFG=2
M  V30 2 O 73.164900 55.240000 40.517900 0
M  V30 3 C 73.953000 56.372600 40.172300 0 CFG=1
M  V30 4 C 73.095200 57.427300 39.504100 0
M  V30 5 C 74.617200 56.763600 41.480200 0 CFG=1
M  V30 6 O 73.677600 57.458100 42.300100 0
M  V30 7 C 74.894400 55.369300 42.001600 0 CFG=1
M  V30 8 O 75.272300 55.416300 43.335300 0
M  V30 9 H 72.842600 55.045800 42.528300 0
M  V30 10 H 74.724500 56.049200 39.475500 0
M  V30 11 H 73.662900 58.340100 39.325900 0
M  V30 12 H 72.727800 57.075800 38.540700 0
M  V30 13 H 72.229200 57.658300 40.125300 0
M  V30 14 H 75.524300 57.357800 41.347600 0
M  V30 15 H 75.674800 54.887000 41.417800 0
M  V30 16 H 72.862000 56.985900 42.264300 0
M  V30 17 H 74.536400 55.762700 43.829700 0
M  V30 18 R 73.471700 53.143500 41.773100 0
M  V30 END ATOM
M  V30 BEGIN BOND
M  V30 1 1 2 1
M  V30 2 1 3 2
M  V30 3 1 4 3
M  V30 4 1 5 3
M  V30 5 1 6 5
M  V30 6 1 7 1
M  V30 7 1 7 5
M  V30 8 1 8 7
M  V30 9 1 1 9 CFG=1
M  V30 10 1 3 10 CFG=3
M  V30 11 1 11 4
M  V30 12 1 12 4
M  V30 13 1 13 4
M  V30 14 1 5 14 CFG=3
M  V30 15 1 7 15 CFG=3
M  V30 16 1 16 6
M  V30 17 1 17 8
M  V30 18 1 18 1
M  V30 END BOND
M  V30 END CTAB
M  END
$$$$
R-group 459 (3794-1)
     RDKit          3D

  0  0  0  0  0  0  0  0  0  0999 V3000
M  V30 BEGIN CTAB
M  V30 COUNTS 19 19 0 0 1
M  V30 BEGIN ATOM
M  V30 1 O 73.483500 54.738300 42.072600 0
M  V30 2 C 74.623200 55.592400 42.006300 0
M  V30 3 C 74.602400 56.556700 40.801200 0
M  V30 4 C 73.266400 57.305300 40.716300 0
M  V30 5 C 72.970300 58.043500 42.029200 0
M  V30 6 C 73.115600 57.154100 43.274100 0
M  V30 7 C 74.455900 56.385900 43.297200 0
M  V30 8 H 75.567600 55.048500 42.036000 0
M  V30 9 H 75.413000 57.274300 40.922500 0
M  V30 10 H 74.814700 56.063900 39.857200 0
M  V30 11 H 73.279600 58.014100 39.888200 0
M  V30 12 H 72.471800 56.599100 40.484900 0
M  V30 13 H 73.673800 58.858400 42.123900 0
M  V30 14 H 71.984900 58.502900 42.001600 0
M  V30 15 H 72.955700 57.776000 44.147000 0
M  V30 16 H 72.332000 56.404900 43.328600 0
M  V30 17 H 74.466300 55.657900 44.115000 0
M  V30 18 H 75.295000 57.068800 43.431300 0
M  V30 19 R 73.571200 53.394400 41.670900 0
M  V30 END ATOM
M  V30 BEGIN BOND
M  V30 1 1 2 1
M  V30 2 1 3 2
M  V30 3 1 4 3
M  V30 4 1 5 4
M  V30 5 1 6 5
M  V30 6 1 7 2
M  V30 7 1 7 6
M  V30 8 1 8 2
M  V30 9 1 9 3
M  V30 10 1 10 3
M  V30 11 1 11 4
M  V30 12 1 12 4
M  V30 13 1 13 5
M  V30 14 1 14 5
M  V30 15 1 15 6
M  V30 16 1 16 6
M  V30 17 1 17 7
M  V30 18 1 18 7
M  V30 19 1 19 1
M  V30 END BOND
M  V30 END CTAB
M  END
$$$$
R-group 460 (40424-2)
     RDKit          3D

  0  0  0  0  0  0  0  0  0  0999 V3000
M  V30 BEGIN CTAB
M  V30 COUNTS 17 16 0 0 1
M  V30 BEGIN ATOM
M  V30 1 C 73.827700 55.084900 42.310700 0
M  V30 2 C 74.929000 55.870800 41.553700 0 CFG=2
M  V30 3 C 75.521300 56.953600 42.467900 0
M  V30 4 C 74.517400 56.477700 40.179600 0
M  V30 5 C 73.113200 57.090200 40.042300 0
M  V30 6 F 72.872900 58.056300 40.927700 0
M  V30 7 H 74.037200 55.176900 43.375900 0
M  V30 8 H 72.877100 55.592400 42.219400 0
M  V30 9 H 75.757400 55.188800 41.370200 0
M  V30 10 H 74.752800 57.657500 42.784400 0
M  V30 11 H 75.957600 56.518200 43.368100 0
M  V30 12 H 76.317400 57.504700 41.965900 0
M  V30 13 H 74.583600 55.724400 39.401700 0
M  V30 14 H 75.254900 57.226100 39.887200 0
M  V30 15 H 72.325400 56.344800 40.135100 0
M  V30 16 H 73.012900 57.527100 39.049500 0
M  V30 17 R 73.643900 53.574200 42.003000 0
M  V30 END ATOM
M  V30 BEGIN BOND
M  V30 1 1 2 1
M  V30 2 1 3 2
M  V30 3 1 4 2
M  V30 4 1 5 4
M  V30 5 1 6 5
M  V30 6 1 7 1
M  V30 7 1 8 1
M  V30 8 1 2 9 CFG=3
M  V30 9 1 10 3
M  V30 10 1 11 3
M  V30 11 1 12 3
M  V30 12 1 13 4
M  V30 13 1 14 4
M  V30 14 1 15 5
M  V30 15 1 16 5
M  V30 16 1 17 1
M  V30 END BOND
M  V30 END CTAB
M  END
$$$$
R-group 461 (39215-2)
     RDKit          3D

  0  0  0  0  0  0  0  0  0  0999 V3000
M  V30 BEGIN CTAB
M  V30 COUNTS 18 18 0 0 1
M  V30 BEGIN ATOM
M  V30 1 C 73.849000 54.801200 41.343700 0 CFG=2
M  V30 2 C 73.505500 55.658600 42.586800 0
M  V30 3 C 73.839800 57.138300 42.430900 0
M  V30 4 C 73.156500 57.804300 41.233800 0
M  V30 5 C 73.632800 57.241300 39.890500 0
M  V30 6 S 73.110800 55.490000 39.725200 0
M  V30 7 O 73.795500 54.941200 38.557900 0
M  V30 8 O 71.646500 55.384600 39.711600 0
M  V30 9 H 74.921900 54.893800 41.180000 0
M  V30 10 H 72.472400 55.525400 42.924600 0
M  V30 11 H 74.097300 55.305600 43.434100 0
M  V30 12 H 73.551000 57.661500 43.342600 0
M  V30 13 H 74.920500 57.260600 42.342700 0
M  V30 14 H 72.076100 57.736500 41.294000 0
M  V30 15 H 73.350000 58.858000 41.319100 0
M  V30 16 H 73.271600 57.798800 39.029000 0
M  V30 17 H 74.719300 57.258900 39.824400 0
M  V30 18 R 73.566900 53.295800 41.625200 0
M  V30 END ATOM
M  V30 BEGIN BOND
M  V30 1 1 2 1
M  V30 2 1 3 2
M  V30 3 1 4 3
M  V30 4 1 5 4
M  V30 5 1 6 1
M  V30 6 1 6 5
M  V30 7 2 7 6
M  V30 8 2 8 6
M  V30 9 1 1 9 CFG=3
M  V30 10 1 10 2
M  V30 11 1 11 2
M  V30 12 1 12 3
M  V30 13 1 13 3
M  V30 14 1 14 4
M  V30 15 1 15 4
M  V30 16 1 16 5
M  V30 17 1 17 5
M  V30 18 1 18 1
M  V30 END BOND
M  V30 END CTAB
M  END
$$$$
R-group 462 (28052-3)
     RDKit          3D

  0  0  0  0  0  0  0  0  0  0999 V3000
M  V30 BEGIN CTAB
M  V30 COUNTS 16 16 0 0 1
M  V30 BEGIN ATOM
M  V30 1 C 73.754100 55.149200 41.327200 0 CFG=2
M  V30 2 C 75.090900 55.455200 40.620000 0
M  V30 3 C 75.786300 56.573600 41.395500 0
M  V30 4 C 75.101600 56.587900 42.750200 0 CFG=2
M  V30 5 C 75.671500 55.657800 43.724700 0
M  V30 6 N 76.072900 54.940100 44.524800 0
M  V30 7 C 73.666000 56.163000 42.465300 0
M  V30 8 H 72.961700 55.462000 40.646600 0
M  V30 9 H 75.733800 54.583400 40.583600 0
M  V30 10 H 74.893600 55.771700 39.594700 0
M  V30 11 H 75.628500 57.529800 40.899600 0
M  V30 12 H 76.860900 56.429000 41.483100 0
M  V30 13 H 75.136600 57.575700 43.212200 0
M  V30 14 H 73.153100 55.747600 43.328700 0
M  V30 15 H 73.096100 57.037300 42.138700 0
M  V30 16 R 73.435400 53.650800 41.682600 0
M  V30 END ATOM
M  V30 BEGIN BOND
M  V30 1 1 2 1
M  V30 2 1 3 2
M  V30 3 1 4 3
M  V30 4 1 5 4
M  V30 5 3 6 5
M  V30 6 1 7 1
M  V30 7 1 7 4
M  V30 8 1 1 8 CFG=3
M  V30 9 1 9 2
M  V30 10 1 10 2
M  V30 11 1 11 3
M  V30 12 1 12 3
M  V30 13 1 4 13 CFG=1
M  V30 14 1 14 7
M  V30 15 1 15 7
M  V30 16 1 16 1
M  V30 END BOND
M  V30 END CTAB
M  END
$$$$
R-group 463 (45039-3)
     RDKit          3D

  0  0  0  0  0  0  0  0  0  0999 V3000
M  V30 BEGIN CTAB
M  V30 COUNTS 17 17 0 0 1
M  V30 BEGIN ATOM
M  V30 1 C 76.256200 55.594600 44.320600 0
M  V30 2 O 75.672300 56.298500 43.229900 0
M  V30 3 C 74.341600 55.928300 42.926100 0 CFG=1
M  V30 4 C 73.559200 57.204400 42.670400 0
M  V30 5 O 73.672000 57.385100 41.274700 0
M  V30 6 C 73.567000 56.115700 40.662300 0
M  V30 7 C 74.296200 55.156700 41.618800 0 CFG=2
M  V30 8 H 77.248600 55.988200 44.524600 0
M  V30 9 H 75.672600 55.650200 45.236900 0
M  V30 10 H 76.401500 54.542900 44.124900 0
M  V30 11 H 73.876000 55.375900 43.724800 0
M  V30 12 H 72.514400 57.067300 42.945000 0
M  V30 13 H 73.944200 58.055800 43.230100 0
M  V30 14 H 74.025900 56.134200 39.674200 0
M  V30 15 H 72.513800 55.870500 40.524400 0
M  V30 16 H 75.323700 55.071600 41.261300 0
M  V30 17 R 73.685300 53.730300 41.743400 0
M  V30 END ATOM
M  V30 BEGIN BOND
M  V30 1 1 2 1
M  V30 2 1 3 2
M  V30 3 1 4 3
M  V30 4 1 5 4
M  V30 5 1 6 5
M  V30 6 1 7 3
M  V30 7 1 7 6
M  V30 8 1 8 1
M  V30 9 1 9 1
M  V30 10 1 10 1
M  V30 11 1 3 11 CFG=1
M  V30 12 1 12 4
M  V30 13 1 13 4
M  V30 14 1 14 6
M  V30 15 1 15 6
M  V30 16 1 7 16 CFG=3
M  V30 17 1 17 7
M  V30 END BOND
M  V30 END CTAB
M  END
$$$$
R-group 464 (16152-1)
     RDKit          3D

  0  0  0  0  0  0  0  0  0  0999 V3000
M  V30 BEGIN CTAB
M  V30 COUNTS 18 17 0 0 1
M  V30 BEGIN ATOM
M  V30 1 C 73.097100 57.471000 43.326300 0
M  V30 2 C 74.604400 57.196900 43.112900 0
M  V30 3 C 74.947500 56.958300 41.628200 0 CFG=1
M  V30 4 C 76.373800 57.385500 41.255100 0
M  V30 5 C 74.771000 55.489400 41.245200 0
M  V30 6 O 73.674200 54.897300 41.924700 0
M  V30 7 H 72.872100 57.910200 44.296200 0
M  V30 8 H 72.509100 56.555900 43.278400 0
M  V30 9 H 72.710400 58.166000 42.582000 0
M  V30 10 H 75.163600 58.028200 43.534500 0
M  V30 11 H 74.934900 56.326900 43.690100 0
M  V30 12 H 74.264000 57.552200 41.020100 0
M  V30 13 H 77.105900 56.916700 41.905400 0
M  V30 14 H 76.610500 57.104200 40.229500 0
M  V30 15 H 76.510500 58.458000 41.323500 0
M  V30 16 H 74.612200 55.469500 40.169200 0
M  V30 17 H 75.682900 54.935200 41.471900 0
M  V30 18 R 73.515300 53.492300 41.799000 0
M  V30 END ATOM
M  V30 BEGIN BOND
M  V30 1 1 2 1
M  V30 2 1 3 2
M  V30 3 1 4 3
M  V30 4 1 5 3
M  V30 5 1 6 5
M  V30 6 1 7 1
M  V30 7 1 8 1
M  V30 8 1 9 1
M  V30 9 1 10 2
M  V30 10 1 11 2
M  V30 11 1 3 12 CFG=3
M  V30 12 1 13 4
M  V30 13 1 14 4
M  V30 14 1 15 4
M  V30 15 1 16 5
M  V30 16 1 17 5
M  V30 17 1 18 6
M  V30 END BOND
M  V30 END CTAB
M  END
$$$$
R-group 465 (2327-2)
     RDKit          3D

  0  0  0  0  0  0  0  0  0  0999 V3000
M  V30 BEGIN CTAB
M  V30 COUNTS 16 16 0 0 1
M  V30 BEGIN ATOM
M  V30 1 C 74.769900 55.293800 41.873200 0 CFG=2
M  V30 2 C 74.631700 56.075300 43.194700 0
M  V30 3 C 73.306900 56.850400 43.232200 0
M  V30 4 C 73.202100 57.741800 41.988000 0
M  V30 5 O 73.273900 56.952500 40.808700 0
M  V30 6 C 74.516100 56.276400 40.694200 0
M  V30 7 H 75.823100 55.035100 41.770700 0
M  V30 8 H 74.714200 55.422900 44.061200 0
M  V30 9 H 75.456600 56.784900 43.275500 0
M  V30 10 H 72.472300 56.153500 43.293300 0
M  V30 11 H 73.241200 57.471300 44.124100 0
M  V30 12 H 72.278300 58.319000 41.992800 0
M  V30 13 H 74.018300 58.458000 41.985100 0
M  V30 14 H 75.314500 57.020500 40.667800 0
M  V30 15 H 74.557400 55.795200 39.720700 0
M  V30 16 R 73.992700 53.928200 41.888800 0
M  V30 END ATOM
M  V30 BEGIN BOND
M  V30 1 1 2 1
M  V30 2 1 3 2
M  V30 3 1 4 3
M  V30 4 1 5 4
M  V30 5 1 6 1
M  V30 6 1 6 5
M  V30 7 1 1 7 CFG=3
M  V30 8 1 8 2
M  V30 9 1 9 2
M  V30 10 1 10 3
M  V30 11 1 11 3
M  V30 12 1 12 4
M  V30 13 1 13 4
M  V30 14 1 14 6
M  V30 15 1 15 6
M  V30 16 1 16 1
M  V30 END BOND
M  V30 END CTAB
M  END
$$$$
R-group 466 (21980-2)
     RDKit          3D

  0  0  0  0  0  0  0  0  0  0999 V3000
M  V30 BEGIN CTAB
M  V30 COUNTS 13 12 0 0 1
M  V30 BEGIN ATOM
M  V30 1 O 73.319600 54.800200 42.111900 0
M  V30 2 C 74.069000 55.818400 41.444100 0 CFG=1
M  V30 3 C 73.285000 56.511700 40.299800 0
M  V30 4 C 74.416800 56.857400 42.499500 0
M  V30 5 N 75.672200 56.856500 42.924700 0
M  V30 6 O 73.580400 57.653600 42.923300 0
M  V30 7 H 75.003100 55.402300 41.059700 0
M  V30 8 H 73.946700 57.177000 39.740600 0
M  V30 9 H 72.841500 55.816800 39.583000 0
M  V30 10 H 72.471700 57.135000 40.673700 0
M  V30 11 H 76.330100 56.188100 42.552600 0
M  V30 12 H 75.966100 57.537000 43.616600 0
M  V30 13 R 73.466800 53.446300 41.690600 0
M  V30 END ATOM
M  V30 BEGIN BOND
M  V30 1 1 2 1
M  V30 2 1 3 2
M  V30 3 1 4 2
M  V30 4 1 5 4
M  V30 5 2 6 4
M  V30 6 1 2 7 CFG=3
M  V30 7 1 8 3
M  V30 8 1 9 3
M  V30 9 1 10 3
M  V30 10 1 11 5
M  V30 11 1 12 5
M  V30 12 1 13 1
M  V30 END BOND
M  V30 END CTAB
M  END
$$$$
R-group 467 (2983-2)
     RDKit          3D

  0  0  0  0  0  0  0  0  0  0999 V3000
M  V30 BEGIN CTAB
M  V30 COUNTS 16 16 0 0 1
M  V30 BEGIN ATOM
M  V30 1 C 73.603900 54.822200 41.804200 0 CFG=1
M  V30 2 C 73.671000 55.655900 43.088500 0
M  V30 3 C 74.530000 56.644000 42.322600 0 CFG=2
M  V30 4 C 75.712100 57.258400 43.048100 0
M  V30 5 O 73.732300 57.649000 41.736600 0
M  V30 6 C 74.901300 55.500100 41.383400 0
M  V30 7 H 72.863600 55.257300 41.146500 0
M  V30 8 H 72.716100 56.056100 43.428900 0
M  V30 9 H 74.212600 55.196900 43.911400 0
M  V30 10 H 76.228200 56.513600 43.654500 0
M  V30 11 H 76.457300 57.656400 42.354700 0
M  V30 12 H 75.390500 58.033500 43.724800 0
M  V30 13 H 75.789800 54.960800 41.711300 0
M  V30 14 H 74.963200 55.787800 40.333500 0
M  V30 15 H 73.037100 57.214800 41.272500 0
M  V30 16 R 73.433000 53.310800 41.810200 0
M  V30 END ATOM
M  V30 BEGIN BOND
M  V30 1 1 2 1
M  V30 2 1 3 2
M  V30 3 1 4 3
M  V30 4 1 3 5 CFG=3
M  V30 5 1 6 1
M  V30 6 1 6 3
M  V30 7 1 1 7 CFG=3
M  V30 8 1 8 2
M  V30 9 1 9 2
M  V30 10 1 10 4
M  V30 11 1 11 4
M  V30 12 1 12 4
M  V30 13 1 13 6
M  V30 14 1 14 6
M  V30 15 1 15 5
M  V30 16 1 16 1
M  V30 END BOND
M  V30 END CTAB
M  END
$$$$
R-group 468 (714-1)
     RDKit          3D

  0  0  0  0  0  0  0  0  0  0999 V3000
M  V30 BEGIN CTAB
M  V30 COUNTS 12 12 0 0 1
M  V30 BEGIN ATOM
M  V30 1 C 74.138300 55.087400 41.801100 0
M  V30 2 C 73.587400 56.138700 40.819600 0
M  V30 3 C 73.752000 57.176800 41.932300 0
M  V30 4 C 73.712400 56.020800 42.933000 0
M  V30 5 H 75.227800 55.128800 41.713700 0
M  V30 6 H 74.218500 56.316100 39.947300 0
M  V30 7 H 72.550800 55.977600 40.524600 0
M  V30 8 H 74.728100 57.658100 41.898400 0
M  V30 9 H 72.937400 57.896000 42.023300 0
M  V30 10 H 72.713000 55.820200 43.323600 0
M  V30 11 H 74.453400 56.058000 43.724600 0
M  V30 12 R 73.664700 53.627700 41.800300 0
M  V30 END ATOM
M  V30 BEGIN BOND
M  V30 1 1 2 1
M  V30 2 1 3 2
M  V30 3 1 4 1
M  V30 4 1 4 3
M  V30 5 1 5 1
M  V30 6 1 6 2
M  V30 7 1 7 2
M  V30 8 1 8 3
M  V30 9 1 9 3
M  V30 10 1 10 4
M  V30 11 1 11 4
M  V30 12 1 12 1
M  V30 END BOND
M  V30 END CTAB
M  END
$$$$
R-group 469 (16226-1)
     RDKit          3D

  0  0  0  0  0  0  0  0  0  0999 V3000
M  V30 BEGIN CTAB
M  V30 COUNTS 16 16 0 0 1
M  V30 BEGIN ATOM
M  V30 1 O 73.823300 54.753500 41.777600 0
M  V30 2 C 73.608700 55.535000 42.925400 0
M  V30 3 C 74.276700 56.863800 42.724400 0
M  V30 4 C 75.809700 56.931200 42.802500 0
M  V30 5 C 75.849500 57.064300 41.283600 0
M  V30 6 F 76.630800 58.050400 40.842200 0
M  V30 7 F 76.114700 55.912800 40.672500 0
M  V30 8 C 74.350100 57.410500 41.304800 0
M  V30 9 H 72.544400 55.656000 43.126600 0
M  V30 10 H 74.072400 55.071200 43.786700 0
M  V30 11 H 73.851700 57.616400 43.388900 0
M  V30 12 H 76.168300 57.816100 43.324700 0
M  V30 13 H 76.289300 56.034400 43.188000 0
M  V30 14 H 73.753300 56.878700 40.562600 0
M  V30 15 H 74.072200 58.458000 41.327300 0
M  V30 16 R 73.486700 53.392000 41.901300 0
M  V30 END ATOM
M  V30 BEGIN BOND
M  V30 1 1 2 1
M  V30 2 1 3 2
M  V30 3 1 4 3
M  V30 4 1 5 4
M  V30 5 1 6 5
M  V30 6 1 7 5
M  V30 7 1 8 3
M  V30 8 1 8 5
M  V30 9 1 9 2
M  V30 10 1 10 2
M  V30 11 1 11 3
M  V30 12 1 12 4
M  V30 13 1 13 4
M  V30 14 1 14 8
M  V30 15 1 15 8
M  V30 16 1 16 1
M  V30 END BOND
M  V30 END CTAB
M  END
$$$$
R-group 470 (3129-1)
     RDKit          3D

  0  0  0  0  0  0  0  0  0  0999 V3000
M  V30 BEGIN CTAB
M  V30 COUNTS 14 14 0 0 1
M  V30 BEGIN ATOM
M  V30 1 C 73.830300 54.868300 41.780100 0
M  V30 2 C 74.072300 55.650400 42.924600 0
M  V30 3 C 73.922100 57.032300 42.849700 0
M  V30 4 N 73.672100 57.658000 41.709300 0
M  V30 5 C 73.643000 56.937100 40.584800 0
M  V30 6 C 73.568100 57.721800 39.324800 0
M  V30 7 C 73.672700 55.547100 40.554000 0
M  V30 8 H 74.213900 55.221600 43.900400 0
M  V30 9 H 73.989400 57.657600 43.724500 0
M  V30 10 H 72.873200 57.258300 38.623500 0
M  V30 11 H 73.272300 58.754700 39.503600 0
M  V30 12 H 74.561500 57.734100 38.887500 0
M  V30 13 H 73.525100 55.063300 39.603200 0
M  V30 14 R 73.632600 53.366500 41.897900 0
M  V30 END ATOM
M  V30 BEGIN BOND
M  V30 1 2 2 1
M  V30 2 1 3 2
M  V30 3 2 4 3
M  V30 4 1 5 4
M  V30 5 1 6 5
M  V30 6 1 7 1
M  V30 7 2 7 5
M  V30 8 1 8 2
M  V30 9 1 9 3
M  V30 10 1 10 6
M  V30 11 1 11 6
M  V30 12 1 12 6
M  V30 13 1 13 7
M  V30 14 1 14 1
M  V30 END BOND
M  V30 END CTAB
M  END
$$$$
R-group 471 (756-1)
     RDKit          3D

  0  0  0  0  0  0  0  0  0  0999 V3000
M  V30 BEGIN CTAB
M  V30 COUNTS 11 11 0 0 1
M  V30 BEGIN ATOM
M  V30 1 C 74.168100 55.048900 42.006900 0
M  V30 2 N 73.672200 56.034600 42.737000 0
M  V30 3 C 74.472300 57.115100 42.492400 0
M  V30 4 C 75.462000 56.717100 41.638600 0
M  V30 5 C 76.649800 57.395000 41.072200 0
M  V30 6 O 75.272200 55.411600 41.309700 0
M  V30 7 H 74.301200 58.058000 42.983100 0
M  V30 8 H 76.472400 58.458000 40.924700 0
M  V30 9 H 77.504500 57.259600 41.724700 0
M  V30 10 H 76.917900 56.948900 40.124700 0
M  V30 11 R 73.698800 53.634700 41.942200 0
M  V30 END ATOM
M  V30 BEGIN BOND
M  V30 1 2 2 1
M  V30 2 1 3 2
M  V30 3 2 4 3
M  V30 4 1 5 4
M  V30 5 1 6 1
M  V30 6 1 6 4
M  V30 7 1 7 3
M  V30 8 1 8 5
M  V30 9 1 9 5
M  V30 10 1 10 5
M  V30 11 1 11 1
M  V30 END BOND
M  V30 END CTAB
M  END
$$$$
R-group 472 (10275-5)
     RDKit          3D

  0  0  0  0  0  0  0  0  0  0999 V3000
M  V30 BEGIN CTAB
M  V30 COUNTS 18 19 0 0 1
M  V30 BEGIN ATOM
M  V30 1 C 74.039100 54.662100 41.332600 0 CFG=2
M  V30 2 C 73.975600 55.360600 42.673800 0 CFG=1
M  V30 3 O 75.247400 55.434200 43.310000 0
M  V30 4 C 73.300800 56.690400 42.436500 0 CFG=1
M  V30 5 O 74.102100 57.657800 42.924600 0
M  V30 6 C 73.002300 56.882200 40.970800 0 CFG=1
M  V30 7 C 74.028700 56.831100 39.877500 0
M  V30 8 C 73.329400 55.570900 40.332500 0 CFG=1
M  V30 9 H 75.084600 54.625500 41.011800 0
M  V30 10 H 73.275300 54.823800 43.296700 0
M  V30 11 H 72.472400 56.760100 43.094300 0
M  V30 12 H 72.092400 57.420100 40.696400 0
M  V30 13 H 73.732300 57.264400 38.925100 0
M  V30 14 H 75.065100 56.981200 40.167700 0
M  V30 15 H 72.578700 55.149900 39.664800 0
M  V30 16 H 75.099000 55.532500 44.241900 0
M  V30 17 H 74.967400 57.265900 42.972400 0
M  V30 18 R 73.502700 53.224900 41.516800 0
M  V30 END ATOM
M  V30 BEGIN BOND
M  V30 1 1 2 1
M  V30 2 1 3 2
M  V30 3 1 4 2
M  V30 4 1 5 4
M  V30 5 1 6 4
M  V30 6 1 7 6
M  V30 7 1 8 1
M  V30 8 1 8 6
M  V30 9 1 8 7
M  V30 10 1 1 9 CFG=3
M  V30 11 1 2 10 CFG=1
M  V30 12 1 4 11 CFG=1
M  V30 13 1 6 12 CFG=1
M  V30 14 1 13 7
M  V30 15 1 14 7
M  V30 16 1 8 15 CFG=3
M  V30 17 1 16 3
M  V30 18 1 17 5
M  V30 19 1 18 1
M  V30 END BOND
M  V30 END CTAB
M  END
$$$$
R-group 473 (4504-2)
     RDKit          3D

  0  0  0  0  0  0  0  0  0  0999 V3000
M  V30 BEGIN CTAB
M  V30 COUNTS 21 20 0 0 1
M  V30 BEGIN ATOM
M  V30 1 C 72.865000 56.722500 39.256900 0
M  V30 2 C 72.924500 57.711300 40.427100 0
M  V30 3 C 74.157900 57.665900 41.311600 0
M  V30 4 C 74.239100 56.684600 42.471800 0 CFG=2
M  V30 5 C 75.530000 56.943000 43.276800 0
M  V30 6 C 74.297800 55.306200 41.870300 0
M  V30 7 O 75.268600 55.015500 41.179500 0
M  V30 8 N 73.280000 54.475500 42.124400 0
M  V30 9 H 71.950900 56.866200 38.680800 0
M  V30 10 H 72.863000 55.684400 39.584800 0
M  V30 11 H 73.714100 56.856900 38.584900 0
M  V30 12 H 72.874900 58.728800 40.047100 0
M  V30 13 H 72.075800 57.651900 41.076400 0
M  V30 14 H 75.076600 57.652900 40.722800 0
M  V30 15 H 74.071900 58.648400 41.743400 0
M  V30 16 H 73.367900 56.784200 43.121500 0
M  V30 17 H 75.683500 56.196500 44.058500 0
M  V30 18 H 76.415400 56.921200 42.640800 0
M  V30 19 H 75.505100 57.931100 43.729400 0
M  V30 20 H 72.553800 54.814800 42.743500 0
M  V30 21 R 73.304700 53.051300 41.888800 0
M  V30 END ATOM
M  V30 BEGIN BOND
M  V30 1 1 2 1
M  V30 2 1 3 2
M  V30 3 1 4 3
M  V30 4 1 5 4
M  V30 5 1 6 4
M  V30 6 2 7 6
M  V30 7 1 8 6
M  V30 8 1 9 1
M  V30 9 1 10 1
M  V30 10 1 11 1
M  V30 11 1 12 2
M  V30 12 1 13 2
M  V30 13 1 14 3
M  V30 14 1 15 3
M  V30 15 1 4 16 CFG=1
M  V30 16 1 17 5
M  V30 17 1 18 5
M  V30 18 1 19 5
M  V30 19 1 20 8
M  V30 20 1 21 8
M  V30 END BOND
M  V30 END CTAB
M  END
$$$$
R-group 474 (10756-1)
     RDKit          3D

  0  0  0  0  0  0  0  0  0  0999 V3000
M  V30 BEGIN CTAB
M  V30 COUNTS 15 15 0 0 1
M  V30 BEGIN ATOM
M  V30 1 C 73.904100 55.163800 41.739500 0 CFG=2
M  V30 2 C 75.146900 55.614800 40.946800 0
M  V30 3 C 75.689400 56.860300 41.638400 0
M  V30 4 C 74.637100 57.238300 42.677500 0
M  V30 5 F 73.728300 58.055000 42.137700 0
M  V30 6 F 75.224600 57.835900 43.720200 0
M  V30 7 C 73.982800 55.922500 43.068600 0
M  V30 8 H 73.054200 55.601600 41.216300 0
M  V30 9 H 75.923900 54.858000 40.942000 0
M  V30 10 H 74.883300 55.832300 39.908900 0
M  V30 11 H 75.906400 57.658100 40.933100 0
M  V30 12 H 76.628000 56.605700 42.129500 0
M  V30 13 H 73.009100 56.059000 43.543700 0
M  V30 14 H 74.636200 55.419200 43.776700 0
M  V30 15 R 73.639800 53.635800 41.819200 0
M  V30 END ATOM
M  V30 BEGIN BOND
M  V30 1 1 2 1
M  V30 2 1 3 2
M  V30 3 1 4 3
M  V30 4 1 5 4
M  V30 5 1 6 4
M  V30 6 1 7 1
M  V30 7 1 7 4
M  V30 8 1 1 8 CFG=3
M  V30 9 1 9 2
M  V30 10 1 10 2
M  V30 11 1 11 3
M  V30 12 1 12 3
M  V30 13 1 13 7
M  V30 14 1 14 7
M  V30 15 1 15 1
M  V30 END BOND
M  V30 END CTAB
M  END
$$$$
R-group 475 (19111-1)
     RDKit          3D

  0  0  0  0  0  0  0  0  0  0999 V3000
M  V30 BEGIN CTAB
M  V30 COUNTS 11 11 0 0 1
M  V30 BEGIN ATOM
M  V30 1 C 73.732500 54.548700 41.519700 0
M  V30 2 N 74.077100 55.353700 42.499900 0
M  V30 3 C 73.865500 56.581000 41.942400 0
M  V30 4 C 73.672600 57.710400 42.821900 0
M  V30 5 F 73.261200 58.779900 42.133700 0
M  V30 6 F 72.787100 57.463400 43.784400 0
M  V30 7 C 73.672900 56.482600 40.594100 0
M  V30 8 O 73.517600 55.166700 40.321100 0
M  V30 9 H 74.602900 57.978700 43.324100 0
M  V30 10 H 73.440200 57.179900 39.802600 0
M  V30 11 R 73.483600 53.102400 41.655100 0
M  V30 END ATOM
M  V30 BEGIN BOND
M  V30 1 2 2 1
M  V30 2 1 3 2
M  V30 3 1 4 3
M  V30 4 1 5 4
M  V30 5 1 6 4
M  V30 6 2 7 3
M  V30 7 1 8 1
M  V30 8 1 8 7
M  V30 9 1 9 4
M  V30 10 1 10 7
M  V30 11 1 11 1
M  V30 END BOND
M  V30 END CTAB
M  END
$$$$
R-group 476 (23165-1)
     RDKit          3D

  0  0  0  0  0  0  0  0  0  0999 V3000
M  V30 BEGIN CTAB
M  V30 COUNTS 8 8 0 0 1
M  V30 BEGIN ATOM
M  V30 1 C 73.812600 54.771800 41.683000 0
M  V30 2 C 74.188500 55.599300 42.708000 0
M  V30 3 S 74.068800 57.258000 42.263600 0
M  V30 4 C 73.671200 56.764200 40.642600 0
M  V30 5 F 73.291700 57.644000 39.747500 0
M  V30 6 N 73.577400 55.457300 40.484000 0
M  V30 7 H 74.408700 55.350400 43.734000 0
M  V30 8 R 73.560900 53.292600 41.766500 0
M  V30 END ATOM
M  V30 BEGIN BOND
M  V30 1 2 2 1
M  V30 2 1 3 2
M  V30 3 1 4 3
M  V30 4 1 5 4
M  V30 5 1 6 1
M  V30 6 2 6 4
M  V30 7 1 7 2
M  V30 8 1 8 1
M  V30 END BOND
M  V30 END CTAB
M  END
$$$$
R-group 477 (104-1)
     RDKit          3D

  0  0  0  0  0  0  0  0  0  0999 V3000
M  V30 BEGIN CTAB
M  V30 COUNTS 3 2 0 0 1
M  V30 BEGIN ATOM
M  V30 1 O 73.780500 55.034800 42.127800 0
M  V30 2 H 73.550200 55.201200 43.032500 0
M  V30 3 R 73.483400 53.684100 41.843900 0
M  V30 END ATOM
M  V30 BEGIN BOND
M  V30 1 1 2 1
M  V30 2 1 3 1
M  V30 END BOND
M  V30 END CTAB
M  END
$$$$
R-group 478 (792-1)
     RDKit          3D

  0  0  0  0  0  0  0  0  0  0999 V3000
M  V30 BEGIN CTAB
M  V30 COUNTS 10 10 0 0 1
M  V30 BEGIN ATOM
M  V30 1 C 73.960100 55.265200 41.652300 0
M  V30 2 F 73.272300 55.826000 40.651700 0
M  V30 3 C 73.926700 56.179300 42.872500 0
M  V30 4 O 75.342200 56.459800 42.769400 0
M  V30 5 C 75.387800 55.758700 41.508000 0
M  V30 6 H 73.315100 57.073400 42.743000 0
M  V30 7 H 73.673000 55.658300 43.789300 0
M  V30 8 H 76.072200 54.931500 41.508900 0
M  V30 9 H 75.561200 56.425800 40.661800 0
M  V30 10 R 73.638400 53.752000 41.800000 0
M  V30 END ATOM
M  V30 BEGIN BOND
M  V30 1 1 2 1
M  V30 2 1 3 1
M  V30 3 1 4 3
M  V30 4 1 5 1
M  V30 5 1 5 4
M  V30 6 1 6 3
M  V30 7 1 7 3
M  V30 8 1 8 5
M  V30 9 1 9 5
M  V30 10 1 10 1
M  V30 END BOND
M  V30 END CTAB
M  END
$$$$
R-group 479 (16251-1)
     RDKit          3D

  0  0  0  0  0  0  0  0  0  0999 V3000
M  V30 BEGIN CTAB
M  V30 COUNTS 9 9 0 0 1
M  V30 BEGIN ATOM
M  V30 1 C 73.935300 55.260100 41.609100 0
M  V30 2 F 73.281600 55.877400 40.551200 0
M  V30 3 C 75.271300 55.890800 41.930100 0
M  V30 4 C 74.089800 56.119400 42.843600 0
M  V30 5 H 76.071000 55.258100 42.295500 0
M  V30 6 H 75.593700 56.723900 41.308900 0
M  V30 7 H 73.618900 57.102500 42.830100 0
M  V30 8 H 74.082600 55.620100 43.806900 0
M  V30 9 R 73.613000 53.751600 41.698300 0
M  V30 END ATOM
M  V30 BEGIN BOND
M  V30 1 1 2 1
M  V30 2 1 3 1
M  V30 3 1 4 1
M  V30 4 1 4 3
M  V30 5 1 5 3
M  V30 6 1 6 3
M  V30 7 1 7 4
M  V30 8 1 8 4
M  V30 9 1 9 1
M  V30 END BOND
M  V30 END CTAB
M  END
$$$$
R-group 480 (2983-1)
     RDKit          3D

  0  0  0  0  0  0  0  0  0  0999 V3000
M  V30 BEGIN CTAB
M  V30 COUNTS 16 16 0 0 1
M  V30 BEGIN ATOM
M  V30 1 C 73.528600 54.818900 42.221300 0 CFG=1
M  V30 2 C 74.843500 55.355400 42.771500 0
M  V30 3 C 74.653400 56.637000 41.989500 0 CFG=1
M  V30 4 C 74.072200 57.782400 42.789300 0
M  V30 5 O 75.826800 57.050300 41.323800 0
M  V30 6 C 73.673200 55.879900 41.106500 0
M  V30 7 H 72.730600 55.127700 42.904100 0
M  V30 8 H 74.878200 55.456900 43.855200 0
M  V30 9 H 75.677500 54.779400 42.397500 0
M  V30 10 H 73.144200 57.494900 43.283400 0
M  V30 11 H 74.771500 58.057800 43.574500 0
M  V30 12 H 73.836200 58.632300 42.150100 0
M  V30 13 H 74.136200 55.556400 40.181800 0
M  V30 14 H 72.795300 56.468400 40.867900 0
M  V30 15 H 76.171600 56.298600 40.868500 0
M  V30 16 R 73.426100 53.312900 41.934700 0
M  V30 END ATOM
M  V30 BEGIN BOND
M  V30 1 1 2 1
M  V30 2 1 3 2
M  V30 3 1 4 3
M  V30 4 1 3 5 CFG=3
M  V30 5 1 6 1
M  V30 6 1 6 3
M  V30 7 1 1 7 CFG=1
M  V30 8 1 8 2
M  V30 9 1 9 2
M  V30 10 1 10 4
M  V30 11 1 11 4
M  V30 12 1 12 4
M  V30 13 1 13 6
M  V30 14 1 14 6
M  V30 15 1 15 5
M  V30 16 1 16 1
M  V30 END BOND
M  V30 END CTAB
M  END
$$$$
R-group 481 (7207-1)
     RDKit          3D

  0  0  0  0  0  0  0  0  0  0999 V3000
M  V30 BEGIN CTAB
M  V30 COUNTS 13 12 0 0 1
M  V30 BEGIN ATOM
M  V30 1 O 73.767500 55.089800 42.105000 0
M  V30 2 C 75.077000 55.569300 41.813000 0
M  V30 3 C 75.019600 56.918100 41.083300 0 CFG=1
M  V30 4 C 76.442700 57.466100 40.859400 0
M  V30 5 O 74.415500 56.713100 39.818500 0
M  V30 6 H 75.595700 55.686400 42.765000 0
M  V30 7 H 75.674300 54.869200 41.240900 0
M  V30 8 H 74.426900 57.627900 41.661500 0
M  V30 9 H 76.989300 57.526900 41.800100 0
M  V30 10 H 76.999000 56.817000 40.185900 0
M  V30 11 H 76.472300 58.457700 40.412400 0
M  V30 12 H 74.275700 57.549000 39.397300 0
M  V30 13 R 73.501900 53.708400 41.835900 0
M  V30 END ATOM
M  V30 BEGIN BOND
M  V30 1 1 2 1
M  V30 2 1 3 2
M  V30 3 1 4 3
M  V30 4 1 5 3
M  V30 5 1 6 2
M  V30 6 1 7 2
M  V30 7 1 3 8 CFG=1
M  V30 8 1 9 4
M  V30 9 1 10 4
M  V30 10 1 11 4
M  V30 11 1 12 5
M  V30 12 1 13 1
M  V30 END BOND
M  V30 END CTAB
M  END
$$$$
R-group 482 (8825-1)
     RDKit          3D

  0  0  0  0  0  0  0  0  0  0999 V3000
M  V30 BEGIN CTAB
M  V30 COUNTS 13 13 0 0 1
M  V30 BEGIN ATOM
M  V30 1 C 72.661900 54.212400 42.097300 0
M  V30 2 C 73.672900 55.318600 41.920000 0
M  V30 3 C 74.621400 55.652500 42.916200 0
M  V30 4 N 75.666800 56.456200 42.633800 0
M  V30 5 C 75.763600 56.878000 41.357200 0
M  V30 6 C 74.756300 56.625900 40.401200 0
M  V30 7 N 73.678500 55.875600 40.688900 0
M  V30 8 H 71.779100 54.457500 41.500300 0
M  V30 9 H 72.281100 54.153900 43.104000 0
M  V30 10 H 74.586400 55.228900 43.905600 0
M  V30 11 H 76.615600 57.492700 41.112100 0
M  V30 12 H 74.822800 57.034600 39.402600 0
M  V30 13 R 73.229900 52.853700 41.664100 0
M  V30 END ATOM
M  V30 BEGIN BOND
M  V30 1 1 2 1
M  V30 2 2 3 2
M  V30 3 1 4 3
M  V30 4 2 5 4
M  V30 5 1 6 5
M  V30 6 1 7 2
M  V30 7 2 7 6
M  V30 8 1 8 1
M  V30 9 1 9 1
M  V30 10 1 10 3
M  V30 11 1 11 5
M  V30 12 1 12 6
M  V30 13 1 13 1
M  V30 END BOND
M  V30 END CTAB
M  END
$$$$
R-group 483 (27089-1)
     RDKit          3D

  0  0  0  0  0  0  0  0  0  0999 V3000
M  V30 BEGIN CTAB
M  V30 COUNTS 16 16 0 0 1
M  V30 BEGIN ATOM
M  V30 1 N 73.500600 54.568300 42.028200 0
M  V30 2 C 74.492800 55.227800 41.425200 0
M  V30 3 O 75.272400 54.704600 40.642800 0
M  V30 4 C 74.636100 56.642300 41.780200 0
M  V30 5 C 74.659900 56.889400 43.265600 0
M  V30 6 C 75.575500 57.395500 40.875100 0
M  V30 7 C 74.069700 57.656800 40.840300 0
M  V30 8 H 74.900600 57.931200 43.478200 0
M  V30 9 H 73.681200 56.668800 43.707300 0
M  V30 10 H 75.420000 56.253400 43.724500 0
M  V30 11 H 76.275200 58.062300 41.357600 0
M  V30 12 H 75.994000 56.916600 39.990800 0
M  V30 13 H 73.523300 57.295600 39.966100 0
M  V30 14 H 73.644500 58.524700 41.326000 0
M  V30 15 H 72.926400 55.080800 42.690900 0
M  V30 16 R 73.321700 53.132200 41.999700 0
M  V30 END ATOM
M  V30 BEGIN BOND
M  V30 1 1 2 1
M  V30 2 2 3 2
M  V30 3 1 4 2
M  V30 4 1 5 4
M  V30 5 1 6 4
M  V30 6 1 7 4
M  V30 7 1 7 6
M  V30 8 1 8 5
M  V30 9 1 9 5
M  V30 10 1 10 5
M  V30 11 1 11 6
M  V30 12 1 12 6
M  V30 13 1 13 7
M  V30 14 1 14 7
M  V30 15 1 15 1
M  V30 16 1 16 1
M  V30 END BOND
M  V30 END CTAB
M  END
$$$$
R-group 484 (5643-1)
     RDKit          3D

  0  0  0  0  0  0  0  0  0  0999 V3000
M  V30 BEGIN CTAB
M  V30 COUNTS 15 15 0 0 1
M  V30 BEGIN ATOM
M  V30 1 C 74.195900 55.126000 41.742000 0
M  V30 2 C 75.276500 55.640300 40.943800 0
M  V30 3 C 75.587100 56.829400 41.475400 0
M  V30 4 C 76.730600 57.750200 41.324900 0
M  V30 5 O 74.655700 57.218100 42.361100 0
M  V30 6 C 73.833400 56.171000 42.526100 0
M  V30 7 C 72.826800 56.414200 43.591400 0
M  V30 8 H 75.901500 55.134900 40.233200 0
M  V30 9 H 77.639400 57.262200 41.045400 0
M  V30 10 H 76.513900 58.458600 40.547300 0
M  V30 11 H 76.869300 58.268400 42.276800 0
M  V30 12 H 71.945300 55.803100 43.409600 0
M  V30 13 H 73.272200 56.069200 44.509800 0
M  V30 14 H 72.558200 57.453200 43.678300 0
M  V30 15 R 73.678400 53.702600 41.796400 0
M  V30 END ATOM
M  V30 BEGIN BOND
M  V30 1 1 2 1
M  V30 2 2 3 2
M  V30 3 1 4 3
M  V30 4 1 5 3
M  V30 5 2 6 1
M  V30 6 1 6 5
M  V30 7 1 7 6
M  V30 8 1 8 2
M  V30 9 1 9 4
M  V30 10 1 10 4
M  V30 11 1 11 4
M  V30 12 1 12 7
M  V30 13 1 13 7
M  V30 14 1 14 7
M  V30 15 1 15 1
M  V30 END BOND
M  V30 END CTAB
M  END
$$$$
R-group 485 (770-1)
     RDKit          3D

  0  0  0  0  0  0  0  0  0  0999 V3000
M  V30 BEGIN CTAB
M  V30 COUNTS 8 8 0 0 1
M  V30 BEGIN ATOM
M  V30 1 C 74.087700 54.843700 41.814300 0
M  V30 2 C 74.820300 55.491200 42.779400 0
M  V30 3 N 74.899000 56.858100 42.586300 0
M  V30 4 C 74.184500 57.255400 41.543400 0
M  V30 5 S 73.672100 55.951400 40.520600 0
M  V30 6 H 75.256900 55.086300 43.680100 0
M  V30 7 H 74.071000 58.301600 41.324800 0
M  V30 8 R 73.680700 53.399100 41.800600 0
M  V30 END ATOM
M  V30 BEGIN BOND
M  V30 1 2 2 1
M  V30 2 1 3 2
M  V30 3 2 4 3
M  V30 4 1 5 1
M  V30 5 1 5 4
M  V30 6 1 6 2
M  V30 7 1 7 4
M  V30 8 1 8 1
M  V30 END BOND
M  V30 END CTAB
M  END
$$$$
R-group 486 (2868-1)
     RDKit          3D

  0  0  0  0  0  0  0  0  0  0999 V3000
M  V30 BEGIN CTAB
M  V30 COUNTS 13 13 0 0 1
M  V30 BEGIN ATOM
M  V30 1 C 72.636200 54.236300 42.007200 0
M  V30 2 C 73.675700 55.323300 41.883900 0
M  V30 3 C 74.569900 55.648400 42.924700 0
M  V30 4 C 75.669100 56.457400 42.573700 0
M  V30 5 N 75.853100 56.862100 41.310100 0
M  V30 6 C 74.893700 56.569300 40.435800 0
M  V30 7 N 73.814200 55.839300 40.653100 0
M  V30 8 H 71.801500 54.454800 41.340100 0
M  V30 9 H 72.177700 54.216100 42.985200 0
M  V30 10 H 74.461600 55.247200 43.920700 0
M  V30 11 H 76.442900 56.712000 43.288600 0
M  V30 12 H 75.024900 56.938000 39.427600 0
M  V30 13 R 73.203500 52.858600 41.626400 0
M  V30 END ATOM
M  V30 BEGIN BOND
M  V30 1 1 2 1
M  V30 2 2 3 2
M  V30 3 1 4 3
M  V30 4 2 5 4
M  V30 5 1 6 5
M  V30 6 1 7 2
M  V30 7 2 7 6
M  V30 8 1 8 1
M  V30 9 1 9 1
M  V30 10 1 10 3
M  V30 11 1 11 4
M  V30 12 1 12 6
M  V30 13 1 13 1
M  V30 END BOND
M  V30 END CTAB
M  END
$$$$
R-group 487 (18732-1)
     RDKit          3D

  0  0  0  0  0  0  0  0  0  0999 V3000
M  V30 BEGIN CTAB
M  V30 COUNTS 13 13 0 0 1
M  V30 BEGIN ATOM
M  V30 1 C 73.849000 54.638300 41.653700 0
M  V30 2 C 74.759700 55.233200 42.541800 0
M  V30 3 C 75.064600 56.564000 42.317800 0
M  V30 4 C 76.062000 57.258700 43.198500 0
M  V30 5 N 74.493100 57.257900 41.325400 0
M  V30 6 C 73.673600 56.605700 40.509000 0
M  V30 7 N 73.317100 55.330000 40.616300 0
M  V30 8 H 75.232400 54.731900 43.367500 0
M  V30 9 H 76.471100 56.578900 43.944100 0
M  V30 10 H 76.872000 57.681300 42.603100 0
M  V30 11 H 75.554300 58.053400 43.727500 0
M  V30 12 H 73.239700 57.173200 39.699000 0
M  V30 13 R 73.477100 53.172400 41.793400 0
M  V30 END ATOM
M  V30 BEGIN BOND
M  V30 1 2 2 1
M  V30 2 1 3 2
M  V30 3 1 4 3
M  V30 4 2 5 3
M  V30 5 1 6 5
M  V30 6 1 7 1
M  V30 7 2 7 6
M  V30 8 1 8 2
M  V30 9 1 9 4
M  V30 10 1 10 4
M  V30 11 1 11 4
M  V30 12 1 12 6
M  V30 13 1 13 1
M  V30 END BOND
M  V30 END CTAB
M  END
$$$$
R-group 488 (16175-1)
     RDKit          3D

  0  0  0  0  0  0  0  0  0  0999 V3000
M  V30 BEGIN CTAB
M  V30 COUNTS 13 13 0 0 1
M  V30 BEGIN ATOM
M  V30 1 O 73.780000 54.870700 41.698500 0
M  V30 2 C 73.719400 55.678100 42.852400 0
M  V30 3 C 74.529200 56.910400 42.544000 0 CFG=1
M  V30 4 C 75.881600 57.064100 43.194800 0
M  V30 5 C 75.796400 56.858100 41.708000 0
M  V30 6 F 76.253600 55.658000 41.211800 0
M  V30 7 F 76.139900 57.940200 40.924700 0
M  V30 8 H 72.692700 55.946500 43.100000 0
M  V30 9 H 74.150800 55.196000 43.724400 0
M  V30 10 H 73.934900 57.815100 42.433800 0
M  V30 11 H 76.072200 58.056900 43.571400 0
M  V30 12 H 76.257100 56.244000 43.802500 0
M  V30 13 R 73.441700 53.505900 41.843100 0
M  V30 END ATOM
M  V30 BEGIN BOND
M  V30 1 1 2 1
M  V30 2 1 3 2
M  V30 3 1 4 3
M  V30 4 1 5 3
M  V30 5 1 5 4
M  V30 6 1 6 5
M  V30 7 1 7 5
M  V30 8 1 8 2
M  V30 9 1 9 2
M  V30 10 1 3 10 CFG=3
M  V30 11 1 11 4
M  V30 12 1 12 4
M  V30 13 1 13 1
M  V30 END BOND
M  V30 END CTAB
M  END
$$$$
R-group 489 (26082-2)
     RDKit          3D

  0  0  0  0  0  0  0  0  0  0999 V3000
M  V30 BEGIN CTAB
M  V30 COUNTS 19 19 0 0 1
M  V30 BEGIN ATOM
M  V30 1 C 76.743200 57.347500 41.071800 0
M  V30 2 C 75.565400 56.624400 41.664900 0
M  V30 3 C 74.874700 55.666900 41.018100 0
M  V30 4 C 73.599400 55.042200 41.572900 0 CFG=2
M  V30 5 C 73.198900 55.647100 42.924500 0
M  V30 6 C 73.607200 57.097100 43.110000 0
M  V30 7 C 75.140200 57.091100 43.031600 0
M  V30 8 H 76.480700 58.397900 40.913000 0
M  V30 9 H 77.601500 57.265700 41.724400 0
M  V30 10 H 77.016900 56.910200 40.126000 0
M  V30 11 H 75.182100 55.412700 40.024800 0
M  V30 12 H 72.843100 55.385000 40.870100 0
M  V30 13 H 72.162000 55.441200 43.208400 0
M  V30 14 H 73.794700 55.147900 43.665200 0
M  V30 15 H 73.252900 57.466400 44.068300 0
M  V30 16 H 73.162800 57.740500 42.350100 0
M  V30 17 H 75.580500 56.369400 43.714700 0
M  V30 18 H 75.573800 58.031600 43.325800 0
M  V30 19 R 73.549900 53.484900 41.635200 0
M  V30 END ATOM
M  V30 BEGIN BOND
M  V30 1 1 2 1
M  V30 2 2 3 2
M  V30 3 1 4 3
M  V30 4 1 5 4
M  V30 5 1 6 5
M  V30 6 1 7 2
M  V30 7 1 7 6
M  V30 8 1 8 1
M  V30 9 1 9 1
M  V30 10 1 10 1
M  V30 11 1 11 3
M  V30 12 1 4 12 CFG=3
M  V30 13 1 13 5
M  V30 14 1 14 5
M  V30 15 1 15 6
M  V30 16 1 16 6
M  V30 17 1 17 7
M  V30 18 1 18 7
M  V30 19 1 19 4
M  V30 END BOND
M  V30 END CTAB
M  END
$$$$
R-group 490 (7805-1)
     RDKit          3D

  0  0  0  0  0  0  0  0  0  0999 V3000
M  V30 BEGIN CTAB
M  V30 COUNTS 13 13 0 0 1
M  V30 BEGIN ATOM
M  V30 1 C 72.771800 54.318200 41.950600 0
M  V30 2 C 73.793300 55.428100 41.797000 0
M  V30 3 N 74.646600 55.616800 42.807000 0
M  V30 4 C 75.671700 56.452600 42.576900 0
M  V30 5 C 75.876400 57.038700 41.323100 0
M  V30 6 C 74.863100 56.844100 40.372400 0
M  V30 7 N 73.814000 56.040200 40.613400 0
M  V30 8 H 71.916700 54.461200 41.291000 0
M  V30 9 H 72.336400 54.327500 42.930200 0
M  V30 10 H 76.368600 56.602700 43.389000 0
M  V30 11 H 76.719100 57.687300 41.130500 0
M  V30 12 H 74.888700 57.309300 39.397900 0
M  V30 13 R 73.317900 52.942500 41.578800 0
M  V30 END ATOM
M  V30 BEGIN BOND
M  V30 1 1 2 1
M  V30 2 2 3 2
M  V30 3 1 4 3
M  V30 4 2 5 4
M  V30 5 1 6 5
M  V30 6 1 7 2
M  V30 7 2 7 6
M  V30 8 1 8 1
M  V30 9 1 9 1
M  V30 10 1 10 4
M  V30 11 1 11 5
M  V30 12 1 12 6
M  V30 13 1 13 1
M  V30 END BOND
M  V30 END CTAB
M  END
$$$$
R-group 491 (5604-1)
     RDKit          3D

  0  0  0  0  0  0  0  0  0  0999 V3000
M  V30 BEGIN CTAB
M  V30 COUNTS 12 12 0 0 1
M  V30 BEGIN ATOM
M  V30 1 C 74.080600 54.790400 42.059400 0
M  V30 2 C 74.871600 55.498800 42.915600 0
M  V30 3 C 74.759200 56.855000 42.524100 0
M  V30 4 C 73.905800 56.871800 41.456900 0
M  V30 5 C 73.205100 57.923700 40.674100 0
M  V30 6 O 73.577500 55.612100 41.110900 0
M  V30 7 H 75.423500 55.106900 43.756200 0
M  V30 8 H 75.223400 57.659300 43.048100 0
M  V30 9 H 73.222500 58.857600 41.225300 0
M  V30 10 H 73.668900 58.058300 39.695900 0
M  V30 11 H 72.149400 57.667100 40.524300 0
M  V30 12 R 73.647600 53.367900 41.959300 0
M  V30 END ATOM
M  V30 BEGIN BOND
M  V30 1 2 2 1
M  V30 2 1 3 2
M  V30 3 2 4 3
M  V30 4 1 5 4
M  V30 5 1 6 1
M  V30 6 1 6 4
M  V30 7 1 7 2
M  V30 8 1 8 3
M  V30 9 1 9 5
M  V30 10 1 10 5
M  V30 11 1 11 5
M  V30 12 1 12 1
M  V30 END BOND
M  V30 END CTAB
M  END
$$$$
R-group 492 (16633-1)
     RDKit          3D

  0  0  0  0  0  0  0  0  0  0999 V3000
M  V30 BEGIN CTAB
M  V30 COUNTS 16 16 0 0 1
M  V30 BEGIN ATOM
M  V30 1 N 74.043400 54.728000 41.736900 0
M  V30 2 C 73.568200 55.541400 40.637500 0
M  V30 3 C 73.952800 56.962500 41.005800 0 CFG=1
M  V30 4 O 72.872600 57.717100 40.524700 0
M  V30 5 C 74.145000 56.910500 42.546700 0 CFG=2
M  V30 6 O 75.518200 56.858000 42.913600 0
M  V30 7 C 73.689400 55.509500 42.907200 0
M  V30 8 H 74.015900 55.285200 39.682700 0
M  V30 9 H 72.485700 55.431400 40.530700 0
M  V30 10 H 74.874300 57.255600 40.500700 0
M  V30 11 H 73.614600 57.693100 43.093400 0
M  V30 12 H 72.608500 55.498500 43.045400 0
M  V30 13 H 74.151900 55.143700 43.822100 0
M  V30 14 H 72.987700 57.834500 39.590000 0
M  V30 15 H 75.878000 56.079100 42.512900 0
M  V30 16 R 73.595100 53.339300 41.787200 0
M  V30 END ATOM
M  V30 BEGIN BOND
M  V30 1 1 2 1
M  V30 2 1 3 2
M  V30 3 1 4 3
M  V30 4 1 5 3
M  V30 5 1 6 5
M  V30 6 1 7 1
M  V30 7 1 7 5
M  V30 8 1 8 2
M  V30 9 1 9 2
M  V30 10 1 3 10 CFG=3
M  V30 11 1 5 11 CFG=1
M  V30 12 1 12 7
M  V30 13 1 13 7
M  V30 14 1 14 4
M  V30 15 1 15 6
M  V30 16 1 16 1
M  V30 END BOND
M  V30 END CTAB
M  END
$$$$
R-group 493 (1710-1)
     RDKit          3D

  0  0  0  0  0  0  0  0  0  0999 V3000
M  V30 BEGIN CTAB
M  V30 COUNTS 26 28 0 0 1
M  V30 BEGIN ATOM
M  V30 1 C 74.005900 55.011800 41.656600 0 CFG=2
M  V30 2 C 73.409300 55.631500 42.925000 0
M  V30 3 C 73.806800 57.077700 43.137100 0 CFG=2
M  V30 4 C 73.399700 57.918500 41.921100 0
M  V30 5 C 74.050300 57.336700 40.654700 0 CFG=1
M  V30 6 C 75.606100 57.355900 40.800800 0
M  V30 7 C 76.002400 56.559900 42.021500 0 CFG=1
M  V30 8 C 75.345100 57.056300 43.322100 0
M  V30 9 C 75.546700 55.144600 41.759100 0
M  V30 10 C 73.552900 55.887000 40.455100 0
M  V30 11 H 72.341900 55.475700 43.003400 0
M  V30 12 H 73.872100 55.094000 43.724600 0
M  V30 13 H 73.275200 57.459800 44.011900 0
M  V30 14 H 73.671700 58.949600 42.104500 0
M  V30 15 H 72.318600 57.949600 41.808900 0
M  V30 16 H 73.731500 57.920800 39.785200 0
M  V30 17 H 76.061200 56.933100 39.905700 0
M  V30 18 H 76.072300 58.332100 40.924900 0
M  V30 19 H 77.081500 56.587200 42.119300 0
M  V30 20 H 75.705500 58.012700 43.644100 0
M  V30 21 H 75.673100 56.385600 44.122900 0
M  V30 22 H 75.854100 54.606700 42.632200 0
M  V30 23 H 76.057500 54.786400 40.869700 0
M  V30 24 H 73.955100 55.515700 39.511600 0
M  V30 25 H 72.471800 55.873100 40.344200 0
M  V30 26 R 73.569600 53.502300 41.654200 0
M  V30 END ATOM
M  V30 BEGIN BOND
M  V30 1 1 2 1
M  V30 2 1 3 2
M  V30 3 1 4 3
M  V30 4 1 5 4
M  V30 5 1 6 5
M  V30 6 1 7 6
M  V30 7 1 8 3
M  V30 8 1 8 7
M  V30 9 1 9 1
M  V30 10 1 9 7
M  V30 11 1 10 1
M  V30 12 1 10 5
M  V30 13 1 11 2
M  V30 14 1 12 2
M  V30 15 1 3 13 CFG=1
M  V30 16 1 14 4
M  V30 17 1 15 4
M  V30 18 1 5 16 CFG=3
M  V30 19 1 17 6
M  V30 20 1 18 6
M  V30 21 1 7 19 CFG=1
M  V30 22 1 20 8
M  V30 23 1 21 8
M  V30 24 1 22 9
M  V30 25 1 23 9
M  V30 26 1 24 10
M  V30 27 1 25 10
M  V30 28 1 1 26 CFG=3
M  V30 END BOND
M  V30 END CTAB
M  END
$$$$
R-group 494 (14791-1)
     RDKit          3D

  0  0  0  0  0  0  0  0  0  0999 V3000
M  V30 BEGIN CTAB
M  V30 COUNTS 14 14 0 0 1
M  V30 BEGIN ATOM
M  V30 1 C 74.337400 55.057000 41.642200 0
M  V30 2 C 75.392000 55.459400 40.875400 0
M  V30 3 N 75.691600 56.762500 41.184600 0
M  V30 4 C 76.823400 57.607500 40.916600 0
M  V30 5 N 74.785900 57.257700 42.000000 0
M  V30 6 C 74.071200 56.259100 42.320500 0
M  V30 7 N 73.188900 56.458100 43.324800 0
M  V30 8 H 76.042800 54.904400 40.222300 0
M  V30 9 H 77.462600 57.258100 40.124900 0
M  V30 10 H 76.472300 58.597200 40.661000 0
M  V30 11 H 77.395500 57.657900 41.838200 0
M  V30 12 H 72.873100 55.636600 43.852900 0
M  V30 13 H 73.271900 57.308900 43.858400 0
M  V30 14 R 73.701800 53.702400 41.815200 0
M  V30 END ATOM
M  V30 BEGIN BOND
M  V30 1 2 2 1
M  V30 2 1 3 2
M  V30 3 1 4 3
M  V30 4 1 5 3
M  V30 5 1 6 1
M  V30 6 2 6 5
M  V30 7 1 7 6
M  V30 8 1 8 2
M  V30 9 1 9 4
M  V30 10 1 10 4
M  V30 11 1 11 4
M  V30 12 1 12 7
M  V30 13 1 13 7
M  V30 14 1 14 1
M  V30 END BOND
M  V30 END CTAB
M  END
$$$$
R-group 495 (35689-4)
     RDKit          3D

  0  0  0  0  0  0  0  0  0  0999 V3000
M  V30 BEGIN CTAB
M  V30 COUNTS 16 16 0 0 1
M  V30 BEGIN ATOM
M  V30 1 C 73.737300 54.875900 41.724800 0 CFG=1
M  V30 2 C 73.738700 55.734100 42.997800 0
M  V30 3 C 74.519700 56.971100 42.586000 0 CFG=2
M  V30 4 O 73.656200 57.657900 41.724800 0
M  V30 5 C 75.669200 56.382400 41.776500 0 CFG=2
M  V30 6 F 76.322800 57.258000 41.023300 0
M  V30 7 C 75.012100 55.275200 40.958200 0
M  V30 8 H 72.899400 55.246800 41.133500 0
M  V30 9 H 72.724400 55.962000 43.326100 0
M  V30 10 H 74.264700 55.251700 43.817200 0
M  V30 11 H 74.852800 57.607000 43.407600 0
M  V30 12 H 76.407100 55.974900 42.462400 0
M  V30 13 H 75.682300 54.444900 40.812400 0
M  V30 14 H 74.744400 55.653000 39.969900 0
M  V30 15 H 72.920900 57.984400 42.222600 0
M  V30 16 R 73.491100 53.366800 41.913600 0
M  V30 END ATOM
M  V30 BEGIN BOND
M  V30 1 1 2 1
M  V30 2 1 3 2
M  V30 3 1 4 3
M  V30 4 1 5 3
M  V30 5 1 6 5
M  V30 6 1 7 1
M  V30 7 1 7 5
M  V30 8 1 1 8 CFG=3
M  V30 9 1 9 2
M  V30 10 1 10 2
M  V30 11 1 3 11 CFG=1
M  V30 12 1 5 12 CFG=1
M  V30 13 1 13 7
M  V30 14 1 14 7
M  V30 15 1 15 4
M  V30 16 1 16 1
M  V30 END BOND
M  V30 END CTAB
M  END
$$$$
R-group 496 (41340-1)
     RDKit          3D

  0  0  0  0  0  0  0  0  0  0999 V3000
M  V30 BEGIN CTAB
M  V30 COUNTS 14 14 0 0 1
M  V30 BEGIN ATOM
M  V30 1 C 74.109800 55.241500 42.488000 0 CFG=1
M  V30 2 C 75.594100 55.587800 42.501300 0
M  V30 3 C 75.643500 57.062600 42.146300 0 CFG=1
M  V30 4 O 76.472200 57.258000 41.024000 0
M  V30 5 C 74.199800 57.396700 41.779700 0
M  V30 6 O 73.672200 56.125500 41.479800 0
M  V30 7 H 73.672200 55.554400 43.436500 0
M  V30 8 H 76.064500 55.377800 43.462600 0
M  V30 9 H 76.072200 55.002100 41.724700 0
M  V30 10 H 76.001400 57.658000 42.986800 0
M  V30 11 H 74.072200 58.058000 40.929500 0
M  V30 12 H 73.667000 57.826600 42.629800 0
M  V30 13 H 76.136600 56.738500 40.309000 0
M  V30 14 R 73.727900 53.760300 42.200400 0
M  V30 END ATOM
M  V30 BEGIN BOND
M  V30 1 1 2 1
M  V30 2 1 3 2
M  V30 3 1 4 3
M  V30 4 1 5 3
M  V30 5 1 6 1
M  V30 6 1 6 5
M  V30 7 1 1 7 CFG=1
M  V30 8 1 8 2
M  V30 9 1 9 2
M  V30 10 1 3 10 CFG=1
M  V30 11 1 11 5
M  V30 12 1 12 5
M  V30 13 1 13 4
M  V30 14 1 14 1
M  V30 END BOND
M  V30 END CTAB
M  END
$$$$
R-group 497 (41244-1)
     RDKit          3D

  0  0  0  0  0  0  0  0  0  0999 V3000
M  V30 BEGIN CTAB
M  V30 COUNTS 9 8 0 0 1
M  V30 BEGIN ATOM
M  V30 1 C 74.079400 54.830800 41.577000 0
M  V30 2 O 74.784000 55.209500 40.639100 0
M  V30 3 N 73.657900 55.654200 42.522500 0
M  V30 4 C 73.841800 57.063200 42.427000 0
M  V30 5 F 73.079800 57.660200 43.325200 0
M  V30 6 F 75.131600 57.257500 42.636100 0
M  V30 7 F 73.448000 57.506500 41.233700 0
M  V30 8 H 73.127800 55.303600 43.315800 0
M  V30 9 R 73.666200 53.382000 41.745400 0
M  V30 END ATOM
M  V30 BEGIN BOND
M  V30 1 2 2 1
M  V30 2 1 3 1
M  V30 3 1 4 3
M  V30 4 1 5 4
M  V30 5 1 6 4
M  V30 6 1 7 4
M  V30 7 1 8 3
M  V30 8 1 9 1
M  V30 END BOND
M  V30 END CTAB
M  END
$$$$
R-group 498 (5518-2)
     RDKit          3D

  0  0  0  0  0  0  0  0  0  0999 V3000
M  V30 BEGIN CTAB
M  V30 COUNTS 22 23 0 0 1
M  V30 BEGIN ATOM
M  V30 1 C 73.048600 54.465300 42.050400 0
M  V30 2 C 74.266600 55.382600 42.183900 0 CFG=2
M  V30 3 C 73.853000 56.766600 42.697700 0
M  V30 4 C 74.448900 57.673700 41.641500 0 CFG=1
M  V30 5 C 75.996900 57.644700 41.719200 0
M  V30 6 C 76.305900 56.303700 41.078600 0
M  V30 7 C 74.929500 55.708900 40.821600 0 CFG=2
M  V30 8 C 74.158500 56.929600 40.347000 0
M  V30 9 H 72.444200 54.858400 41.243500 0
M  V30 10 H 72.414600 54.533500 42.924700 0
M  V30 11 H 74.996800 54.977100 42.882600 0
M  V30 12 H 72.773900 56.887900 42.715900 0
M  V30 13 H 74.204100 57.011400 43.696300 0
M  V30 14 H 73.997300 58.655400 41.724700 0
M  V30 15 H 76.474600 58.448700 41.157200 0
M  V30 16 H 76.363100 57.658400 42.747100 0
M  V30 17 H 76.872100 55.670200 41.736000 0
M  V30 18 H 76.872100 56.441100 40.165900 0
M  V30 19 H 74.994700 54.885600 40.120700 0
M  V30 20 H 74.590700 57.399700 39.461200 0
M  V30 21 H 73.094500 56.753100 40.176300 0
M  V30 22 R 73.334500 52.998600 41.736800 0
M  V30 END ATOM
M  V30 BEGIN BOND
M  V30 1 1 2 1
M  V30 2 1 3 2
M  V30 3 1 4 3
M  V30 4 1 5 4
M  V30 5 1 6 5
M  V30 6 1 7 2
M  V30 7 1 7 6
M  V30 8 1 8 4
M  V30 9 1 8 7
M  V30 10 1 9 1
M  V30 11 1 10 1
M  V30 12 1 2 11 CFG=1
M  V30 13 1 12 3
M  V30 14 1 13 3
M  V30 15 1 4 14 CFG=3
M  V30 16 1 15 5
M  V30 17 1 16 5
M  V30 18 1 17 6
M  V30 19 1 18 6
M  V30 20 1 7 19 CFG=3
M  V30 21 1 20 8
M  V30 22 1 21 8
M  V30 23 1 22 1
M  V30 END BOND
M  V30 END CTAB
M  END
$$$$
R-group 499 (12798-1)
     RDKit          3D

  0  0  0  0  0  0  0  0  0  0999 V3000
M  V30 BEGIN CTAB
M  V30 COUNTS 10 10 0 0 1
M  V30 BEGIN ATOM
M  V30 1 C 74.244000 54.900100 42.115100 0
M  V30 2 N 75.068700 55.301300 43.139100 0
M  V30 3 N 75.672200 56.475500 42.925000 0
M  V30 4 C 75.190900 56.857900 41.764100 0
M  V30 5 C 74.194100 55.982600 41.274800 0
M  V30 6 C 73.352800 56.241700 40.184500 0
M  V30 7 N 72.633600 56.458000 39.324700 0
M  V30 8 H 75.527300 57.784100 41.324800 0
M  V30 9 H 75.280800 54.745800 43.956100 0
M  V30 10 R 73.644800 53.508800 42.084500 0
M  V30 END ATOM
M  V30 BEGIN BOND
M  V30 1 1 2 1
M  V30 2 1 3 2
M  V30 3 2 4 3
M  V30 4 2 5 1
M  V30 5 1 5 4
M  V30 6 1 6 5
M  V30 7 3 7 6
M  V30 8 1 8 4
M  V30 9 1 9 2
M  V30 10 1 10 1
M  V30 END BOND
M  V30 END CTAB
M  END
$$$$
R-group 500 (24657-1)
     RDKit          3D

  0  0  0  0  0  0  0  0  0  0999 V3000
M  V30 BEGIN CTAB
M  V30 COUNTS 10 10 0 0 1
M  V30 BEGIN ATOM
M  V30 1 N 73.875400 55.080900 42.065600 0
M  V30 2 C 73.816000 55.866100 43.304300 0
M  V30 3 C 74.426200 57.023800 42.535400 0
M  V30 4 F 73.674100 58.119500 42.447900 0
M  V30 5 F 75.708200 57.258400 42.814000 0
M  V30 6 C 74.291400 56.152500 41.302500 0
M  V30 7 O 74.468600 56.300400 40.112100 0
M  V30 8 H 72.799900 56.058300 43.650100 0
M  V30 9 H 74.440500 55.482700 44.117300 0
M  V30 10 R 73.535000 53.682800 41.816800 0
M  V30 END ATOM
M  V30 BEGIN BOND
M  V30 1 1 2 1
M  V30 2 1 3 2
M  V30 3 1 4 3
M  V30 4 1 5 3
M  V30 5 1 6 1
M  V30 6 1 6 3
M  V30 7 2 7 6
M  V30 8 1 8 2
M  V30 9 1 9 2
M  V30 10 1 10 1
M  V30 END BOND
M  V30 END CTAB
M  END
$$$$
R-group 501 (6593-1)
     RDKit          3D

  0  0  0  0  0  0  0  0  0  0999 V3000
M  V30 BEGIN CTAB
M  V30 COUNTS 8 8 0 0 1
M  V30 BEGIN ATOM
M  V30 1 C 74.096100 54.977500 41.895200 0
M  V30 2 C 74.872000 55.643700 42.885600 0
M  V30 3 N 75.216100 56.858000 42.524700 0
M  V30 4 O 74.607000 57.070500 41.292200 0
M  V30 5 C 73.964300 55.942300 40.934000 0
M  V30 6 H 75.233200 55.288500 43.837800 0
M  V30 7 H 73.474700 55.972500 39.971600 0
M  V30 8 R 73.588400 53.549100 41.878500 0
M  V30 END ATOM
M  V30 BEGIN BOND
M  V30 1 1 2 1
M  V30 2 2 3 2
M  V30 3 1 4 3
M  V30 4 2 5 1
M  V30 5 1 5 4
M  V30 6 1 6 2
M  V30 7 1 7 5
M  V30 8 1 8 1
M  V30 END BOND
M  V30 END CTAB
M  END
$$$$
R-group 502 (19388-1)
     RDKit          3D

  0  0  0  0  0  0  0  0  0  0999 V3000
M  V30 BEGIN CTAB
M  V30 COUNTS 16 16 0 0 1
M  V30 BEGIN ATOM
M  V30 1 C 73.326600 54.609600 41.730000 0 CFG=1
M  V30 2 C 73.579600 55.541000 42.924700 0
M  V30 3 C 74.427500 56.444800 42.035400 0 CFG=1
M  V30 4 C 75.800200 56.865000 42.497900 0
M  V30 5 O 76.472200 57.257800 41.323800 0
M  V30 6 C 74.401600 55.364100 40.962900 0
M  V30 7 H 72.385800 54.857300 41.256600 0
M  V30 8 H 72.683400 56.016700 43.324900 0
M  V30 9 H 74.174100 55.110200 43.724700 0
M  V30 10 H 73.828300 57.295700 41.701600 0
M  V30 11 H 75.750100 57.658100 43.240400 0
M  V30 12 H 76.350200 56.053600 42.968700 0
M  V30 13 H 75.351300 54.828300 40.916100 0
M  V30 14 H 74.095200 55.720300 39.978800 0
M  V30 15 H 77.238100 57.756900 41.565000 0
M  V30 16 R 73.358100 53.095500 41.817300 0
M  V30 END ATOM
M  V30 BEGIN BOND
M  V30 1 1 2 1
M  V30 2 1 3 2
M  V30 3 1 4 3
M  V30 4 1 5 4
M  V30 5 1 6 1
M  V30 6 1 6 3
M  V30 7 1 1 7 CFG=3
M  V30 8 1 8 2
M  V30 9 1 9 2
M  V30 10 1 3 10 CFG=3
M  V30 11 1 11 4
M  V30 12 1 12 4
M  V30 13 1 13 6
M  V30 14 1 14 6
M  V30 15 1 15 5
M  V30 16 1 16 1
M  V30 END BOND
M  V30 END CTAB
M  END
$$$$
R-group 503 (43896-1)
     RDKit          3D

  0  0  0  0  0  0  0  0  0  0999 V3000
M  V30 BEGIN CTAB
M  V30 COUNTS 16 16 0 0 1
M  V30 BEGIN ATOM
M  V30 1 N 74.027000 54.851300 42.093900 0
M  V30 2 C 74.458200 55.609300 43.262300 0
M  V30 3 C 74.619400 56.831600 42.375600 0
M  V30 4 C 73.671700 57.992700 42.646500 0
M  V30 5 C 76.055200 57.258000 42.071700 0
M  V30 6 C 74.073700 55.943100 41.255600 0
M  V30 7 O 73.786500 56.096100 40.087700 0
M  V30 8 H 73.674000 55.690700 44.010300 0
M  V30 9 H 75.395700 55.272600 43.707300 0
M  V30 10 H 73.934100 58.451200 43.592900 0
M  V30 11 H 73.672600 58.744400 41.858800 0
M  V30 12 H 72.642400 57.654500 42.748200 0
M  V30 13 H 76.535800 57.657800 42.964100 0
M  V30 14 H 76.666500 56.423700 41.725200 0
M  V30 15 H 76.101500 58.030500 41.306200 0
M  V30 16 R 73.647500 53.451900 41.976400 0
M  V30 END ATOM
M  V30 BEGIN BOND
M  V30 1 1 2 1
M  V30 2 1 3 2
M  V30 3 1 4 3
M  V30 4 1 5 3
M  V30 5 1 6 1
M  V30 6 1 6 3
M  V30 7 2 7 6
M  V30 8 1 8 2
M  V30 9 1 9 2
M  V30 10 1 10 4
M  V30 11 1 11 4
M  V30 12 1 12 4
M  V30 13 1 13 5
M  V30 14 1 14 5
M  V30 15 1 15 5
M  V30 16 1 16 1
M  V30 END BOND
M  V30 END CTAB
M  END
$$$$
R-group 504 (2328-1)
     RDKit          3D

  0  0  0  0  0  0  0  0  0  0999 V3000
M  V30 BEGIN CTAB
M  V30 COUNTS 9 9 0 0 1
M  V30 BEGIN ATOM
M  V30 1 C 74.541500 55.233800 41.712300 0 CFG=1
M  V30 2 C 73.888700 56.428800 41.038700 0
M  V30 3 C 74.107900 56.431100 42.524600 0
M  V30 4 F 72.984400 56.337800 43.324700 0
M  V30 5 F 75.095800 57.257600 43.026600 0
M  V30 6 H 75.610000 55.156100 41.515700 0
M  V30 7 H 74.527500 57.069300 40.434500 0
M  V30 8 H 72.872400 56.315000 40.675300 0
M  V30 9 R 73.848900 53.873600 41.821200 0
M  V30 END ATOM
M  V30 BEGIN BOND
M  V30 1 1 2 1
M  V30 2 1 3 1
M  V30 3 1 3 2
M  V30 4 1 4 3
M  V30 5 1 5 3
M  V30 6 1 1 6 CFG=3
M  V30 7 1 7 2
M  V30 8 1 8 2
M  V30 9 1 9 1
M  V30 END BOND
M  V30 END CTAB
M  END
$$$$
R-group 505 (1939-1)
     RDKit          3D

  0  0  0  0  0  0  0  0  0  0999 V3000
M  V30 BEGIN CTAB
M  V30 COUNTS 11 10 0 0 1
M  V30 BEGIN ATOM
M  V30 1 C 73.643900 55.187600 42.177700 0
M  V30 2 C 75.053400 55.727000 42.525600 0
M  V30 3 C 75.074500 57.250500 42.574900 0
M  V30 4 F 75.462000 55.313300 43.723000 0
M  V30 5 F 75.939600 55.360500 41.608200 0
M  V30 6 H 73.272400 55.754300 41.324100 0
M  V30 7 H 72.975500 55.463900 42.991800 0
M  V30 8 H 76.069400 57.617600 42.831800 0
M  V30 9 H 74.804200 57.658500 41.603500 0
M  V30 10 H 74.372800 57.638500 43.314900 0
M  V30 11 R 73.457700 53.668500 41.882200 0
M  V30 END ATOM
M  V30 BEGIN BOND
M  V30 1 1 2 1
M  V30 2 1 3 2
M  V30 3 1 4 2
M  V30 4 1 5 2
M  V30 5 1 6 1
M  V30 6 1 7 1
M  V30 7 1 8 3
M  V30 8 1 9 3
M  V30 9 1 10 3
M  V30 10 1 11 1
M  V30 END BOND
M  V30 END CTAB
M  END
$$$$
R-group 506 (22408-2)
     RDKit          3D

  0  0  0  0  0  0  0  0  0  0999 V3000
M  V30 BEGIN CTAB
M  V30 COUNTS 17 17 0 0 1
M  V30 BEGIN ATOM
M  V30 1 C 74.028600 55.300500 41.523300 0 CFG=2
M  V30 2 C 75.287500 55.656500 40.697900 0
M  V30 3 C 75.936500 56.778400 41.472700 0
M  V30 4 F 76.872400 56.234500 42.214900 0
M  V30 5 F 76.468400 57.734600 40.711000 0
M  V30 6 C 74.879600 57.258200 42.434600 0
M  V30 7 N 74.161300 56.046300 42.773500 0
M  V30 8 C 72.871700 56.428400 43.324600 0
M  V30 9 H 73.191200 55.746000 40.985700 0
M  V30 10 H 76.026400 54.858500 40.573900 0
M  V30 11 H 74.983300 55.998800 39.710400 0
M  V30 12 H 75.296600 57.724400 43.328700 0
M  V30 13 H 74.238100 57.979600 41.922200 0
M  V30 14 H 72.472700 57.255800 42.741000 0
M  V30 15 H 72.160800 55.607400 43.276200 0
M  V30 16 H 72.896500 56.749700 44.363200 0
M  V30 17 R 73.704500 53.792100 41.754300 0
M  V30 END ATOM
M  V30 BEGIN BOND
M  V30 1 1 2 1
M  V30 2 1 3 2
M  V30 3 1 4 3
M  V30 4 1 5 3
M  V30 5 1 6 3
M  V30 6 1 7 1
M  V30 7 1 7 6
M  V30 8 1 8 7
M  V30 9 1 1 9 CFG=3
M  V30 10 1 10 2
M  V30 11 1 11 2
M  V30 12 1 12 6
M  V30 13 1 13 6
M  V30 14 1 14 8
M  V30 15 1 15 8
M  V30 16 1 16 8
M  V30 17 1 17 1
M  V30 END BOND
M  V30 END CTAB
M  END
$$$$
R-group 507 (797-1)
     RDKit          3D

  0  0  0  0  0  0  0  0  0  0999 V3000
M  V30 BEGIN CTAB
M  V30 COUNTS 11 11 0 0 1
M  V30 BEGIN ATOM
M  V30 1 C 73.808100 54.692900 41.604500 0
M  V30 2 C 73.335500 55.534600 40.633100 0
M  V30 3 C 73.673500 56.879100 40.950100 0
M  V30 4 C 72.980600 58.041800 40.334900 0
M  V30 5 N 74.492200 57.061300 41.956900 0
M  V30 6 S 74.871400 55.591900 42.634400 0
M  V30 7 H 72.654800 55.279000 39.841500 0
M  V30 8 H 71.958900 57.731200 40.126200 0
M  V30 9 H 72.890400 58.858000 41.040300 0
M  V30 10 H 73.461900 58.382300 39.415900 0
M  V30 11 R 73.521800 53.238900 41.767100 0
M  V30 END ATOM
M  V30 BEGIN BOND
M  V30 1 2 2 1
M  V30 2 1 3 2
M  V30 3 1 4 3
M  V30 4 2 5 3
M  V30 5 1 6 1
M  V30 6 1 6 5
M  V30 7 1 7 2
M  V30 8 1 8 4
M  V30 9 1 9 4
M  V30 10 1 10 4
M  V30 11 1 11 1
M  V30 END BOND
M  V30 END CTAB
M  END
$$$$
R-group 508 (9977-1)
     RDKit          3D

  0  0  0  0  0  0  0  0  0  0999 V3000
M  V30 BEGIN CTAB
M  V30 COUNTS 9 9 0 0 1
M  V30 BEGIN ATOM
M  V30 1 C 74.131000 54.922100 41.940600 0
M  V30 2 C 73.672600 55.992100 42.639200 0
M  V30 3 C 74.514000 57.066000 42.321400 0
M  V30 4 C 75.445800 56.561200 41.466700 0
M  V30 5 F 76.470800 57.258600 40.925100 0
M  V30 6 O 75.245900 55.254200 41.223100 0
M  V30 7 H 72.835000 55.988200 43.319000 0
M  V30 8 H 74.463800 58.058500 42.711900 0
M  V30 9 R 73.681700 53.511800 41.887900 0
M  V30 END ATOM
M  V30 BEGIN BOND
M  V30 1 2 2 1
M  V30 2 1 3 2
M  V30 3 2 4 3
M  V30 4 1 5 4
M  V30 5 1 6 1
M  V30 6 1 6 4
M  V30 7 1 7 2
M  V30 8 1 8 3
M  V30 9 1 9 1
M  V30 END BOND
M  V30 END CTAB
M  END
$$$$
R-group 509 (39933-1)
     RDKit          3D

  0  0  0  0  0  0  0  0  0  0999 V3000
M  V30 BEGIN CTAB
M  V30 COUNTS 20 20 0 0 1
M  V30 BEGIN ATOM
M  V30 1 O 73.202400 54.461500 42.081600 0
M  V30 2 C 74.391600 55.190500 41.845400 0 CFG=2
M  V30 3 C 75.080600 55.454100 43.181600 0
M  V30 4 C 75.990400 56.611600 42.864300 0
M  V30 5 C 75.130900 57.451800 41.944800 0
M  V30 6 C 74.198400 56.558800 41.149600 0 CFG=2
M  V30 7 C 72.851000 57.257600 41.148600 0
M  V30 8 O 74.495000 56.457700 39.778900 0
M  V30 9 H 75.134300 54.640800 41.278800 0
M  V30 10 H 74.327300 55.658500 43.939500 0
M  V30 11 H 75.671900 54.625500 43.543200 0
M  V30 12 H 76.333200 57.156000 43.744800 0
M  V30 13 H 76.856400 56.256500 42.300800 0
M  V30 14 H 75.776900 58.057300 41.324500 0
M  V30 15 H 74.474000 58.059000 42.585700 0
M  V30 16 H 72.473800 57.337600 42.168300 0
M  V30 17 H 72.930600 58.273200 40.759500 0
M  V30 18 H 72.121900 56.750500 40.520300 0
M  V30 19 H 74.336900 57.292600 39.367100 0
M  V30 20 R 73.259200 53.078500 41.793400 0
M  V30 END ATOM
M  V30 BEGIN BOND
M  V30 1 1 2 1
M  V30 2 1 3 2
M  V30 3 1 4 3
M  V30 4 1 5 4
M  V30 5 1 6 2
M  V30 6 1 6 5
M  V30 7 1 7 6
M  V30 8 1 6 8 CFG=3
M  V30 9 1 2 9 CFG=3
M  V30 10 1 10 3
M  V30 11 1 11 3
M  V30 12 1 12 4
M  V30 13 1 13 4
M  V30 14 1 14 5
M  V30 15 1 15 5
M  V30 16 1 16 7
M  V30 17 1 17 7
M  V30 18 1 18 7
M  V30 19 1 19 8
M  V30 20 1 20 1
M  V30 END BOND
M  V30 END CTAB
M  END
$$$$
R-group 510 (761-2)
     RDKit          3D

  0  0  0  0  0  0  0  0  0  0999 V3000
M  V30 BEGIN CTAB
M  V30 COUNTS 13 13 0 0 1
M  V30 BEGIN ATOM
M  V30 1 C 74.116100 55.179800 41.799800 0 CFG=2
M  V30 2 C 73.555800 55.917600 43.005600 0
M  V30 3 C 73.668200 57.353400 42.551600 0
M  V30 4 C 73.271800 57.250500 41.076800 0
M  V30 5 O 73.675800 55.942700 40.673300 0
M  V30 6 H 75.204200 55.266900 41.801900 0
M  V30 7 H 72.509000 55.660900 43.176500 0
M  V30 8 H 74.104900 55.658100 43.909300 0
M  V30 9 H 74.710000 57.657900 42.640500 0
M  V30 10 H 73.048000 58.045000 43.122300 0
M  V30 11 H 73.673000 58.047800 40.455800 0
M  V30 12 H 72.201000 57.326000 40.924600 0
M  V30 13 R 73.711800 53.684200 41.773700 0
M  V30 END ATOM
M  V30 BEGIN BOND
M  V30 1 1 2 1
M  V30 2 1 3 2
M  V30 3 1 4 3
M  V30 4 1 5 1
M  V30 5 1 5 4
M  V30 6 1 1 6 CFG=1
M  V30 7 1 7 2
M  V30 8 1 8 2
M  V30 9 1 9 3
M  V30 10 1 10 3
M  V30 11 1 11 4
M  V30 12 1 12 4
M  V30 13 1 13 1
M  V30 END BOND
M  V30 END CTAB
M  END
$$$$
R-group 511 (14789-1)
     RDKit          3D

  0  0  0  0  0  0  0  0  0  0999 V3000
M  V30 BEGIN CTAB
M  V30 COUNTS 15 15 0 0 1
M  V30 BEGIN ATOM
M  V30 1 N 74.036600 55.115500 41.806800 0
M  V30 2 C 74.438200 55.722700 43.074600 0
M  V30 3 C 74.899100 57.119500 42.692700 0 CFG=1
M  V30 4 C 76.433100 57.208300 42.687000 0
M  V30 5 N 74.371300 57.203400 41.363000 0
M  V30 6 C 73.936500 56.066500 40.854400 0
M  V30 7 O 73.495900 55.975600 39.712100 0
M  V30 8 H 73.571900 55.767200 43.724700 0
M  V30 9 H 75.229100 55.185000 43.587200 0
M  V30 10 H 74.456900 57.895900 43.320300 0
M  V30 11 H 76.771900 57.257700 43.724700 0
M  V30 12 H 76.866500 56.332600 42.205600 0
M  V30 13 H 76.858100 58.058000 42.160600 0
M  V30 14 H 74.360200 58.057400 40.837000 0
M  V30 15 R 73.595000 53.701200 41.788300 0
M  V30 END ATOM
M  V30 BEGIN BOND
M  V30 1 1 2 1
M  V30 2 1 3 2
M  V30 3 1 4 3
M  V30 4 1 5 3
M  V30 5 1 6 1
M  V30 6 1 6 5
M  V30 7 2 7 6
M  V30 8 1 8 2
M  V30 9 1 9 2
M  V30 10 1 3 10 CFG=1
M  V30 11 1 11 4
M  V30 12 1 12 4
M  V30 13 1 13 4
M  V30 14 1 14 5
M  V30 15 1 15 1
M  V30 END BOND
M  V30 END CTAB
M  END
$$$$
R-group 512 (11500-1)
     RDKit          3D

  0  0  0  0  0  0  0  0  0  0999 V3000
M  V30 BEGIN CTAB
M  V30 COUNTS 20 20 0 0 1
M  V30 BEGIN ATOM
M  V30 1 O 73.972100 54.810000 41.434000 0
M  V30 2 C 73.446600 55.623500 40.383100 0
M  V30 3 C 74.074300 57.021300 40.472500 0
M  V30 4 C 73.541900 57.775800 41.688000 0
M  V30 5 C 74.179300 57.277200 42.979500 0
M  V30 6 O 75.601100 57.257200 42.924800 0
M  V30 7 C 76.182000 56.541300 41.853600 0
M  V30 8 C 75.617900 56.972600 40.496100 0
M  V30 9 H 73.673200 55.235500 39.393200 0
M  V30 10 H 72.366200 55.670100 40.443100 0
M  V30 11 H 73.759500 57.564600 39.580300 0
M  V30 12 H 73.672400 58.850700 41.604100 0
M  V30 13 H 72.471600 57.657900 41.755200 0
M  V30 14 H 73.877400 58.000300 43.724800 0
M  V30 15 H 73.792900 56.309600 43.300300 0
M  V30 16 H 77.244000 56.767900 41.855600 0
M  V30 17 H 76.072700 55.474900 42.029100 0
M  V30 18 H 75.961600 56.279500 39.737200 0
M  V30 19 H 76.072300 57.930600 40.242000 0
M  V30 20 R 73.537000 53.474300 41.639000 0
M  V30 END ATOM
M  V30 BEGIN BOND
M  V30 1 1 2 1
M  V30 2 1 3 2
M  V30 3 1 4 3
M  V30 4 1 5 4
M  V30 5 1 6 5
M  V30 6 1 7 6
M  V30 7 1 8 3
M  V30 8 1 8 7
M  V30 9 1 9 2
M  V30 10 1 10 2
M  V30 11 1 11 3
M  V30 12 1 12 4
M  V30 13 1 13 4
M  V30 14 1 14 5
M  V30 15 1 15 5
M  V30 16 1 16 7
M  V30 17 1 17 7
M  V30 18 1 18 8
M  V30 19 1 19 8
M  V30 20 1 20 1
M  V30 END BOND
M  V30 END CTAB
M  END
$$$$
R-group 513 (20723-4)
     RDKit          3D

  0  0  0  0  0  0  0  0  0  0999 V3000
M  V30 BEGIN CTAB
M  V30 COUNTS 16 17 0 0 1
M  V30 BEGIN ATOM
M  V30 1 N 73.672200 55.012800 41.660500 0
M  V30 2 C 73.188900 55.548900 42.924800 0
M  V30 3 C 73.399600 57.057900 43.079400 0
M  V30 4 O 74.760600 57.258000 42.685000 0
M  V30 5 C 74.881000 57.079800 41.280300 0 CFG=2
M  V30 6 C 75.692400 56.167600 40.385400 0
M  V30 7 C 75.012600 55.562600 41.533500 0 CFG=2
M  V30 8 H 72.155500 55.258400 43.118000 0
M  V30 9 H 73.805600 55.150600 43.724400 0
M  V30 10 H 72.706500 57.644900 42.474200 0
M  V30 11 H 73.245000 57.365000 44.112300 0
M  V30 12 H 74.023400 57.502400 40.756700 0
M  V30 13 H 75.271900 56.058800 39.390700 0
M  V30 14 H 76.773500 56.268700 40.432500 0
M  V30 15 H 75.671200 55.218800 42.332100 0
M  V30 16 R 73.560900 53.549100 41.633900 0
M  V30 END ATOM
M  V30 BEGIN BOND
M  V30 1 1 2 1
M  V30 2 1 3 2
M  V30 3 1 4 3
M  V30 4 1 5 4
M  V30 5 1 6 5
M  V30 6 1 7 1
M  V30 7 1 7 5
M  V30 8 1 7 6
M  V30 9 1 8 2
M  V30 10 1 9 2
M  V30 11 1 10 3
M  V30 12 1 11 3
M  V30 13 1 5 12 CFG=3
M  V30 14 1 13 6
M  V30 15 1 14 6
M  V30 16 1 7 15 CFG=1
M  V30 17 1 16 1
M  V30 END BOND
M  V30 END CTAB
M  END
$$$$
R-group 514 (19105-1)
     RDKit          3D

  0  0  0  0  0  0  0  0  0  0999 V3000
M  V30 BEGIN CTAB
M  V30 COUNTS 16 17 0 0 1
M  V30 BEGIN ATOM
M  V30 1 C 73.524700 54.464800 41.411900 0
M  V30 2 C 73.274400 55.273400 40.256700 0
M  V30 3 C 73.757700 56.498200 40.609700 0
M  V30 4 N 74.279300 56.349800 41.876000 0
M  V30 5 C 75.012000 57.258000 42.690800 0
M  V30 6 C 76.061800 56.677700 43.616600 0
M  V30 7 C 76.462700 57.292200 42.299000 0
M  V30 8 N 74.049000 55.152200 42.387000 0
M  V30 9 H 72.848200 54.993700 39.305200 0
M  V30 10 H 73.828600 57.422500 40.054900 0
M  V30 11 H 74.429800 58.108300 43.025100 0
M  V30 12 H 76.204800 57.244700 44.524300 0
M  V30 13 H 76.147900 55.600200 43.731200 0
M  V30 14 H 76.807500 56.622100 41.514400 0
M  V30 15 H 76.872600 58.285900 42.280800 0
M  V30 16 R 73.372100 52.995800 41.638100 0
M  V30 END ATOM
M  V30 BEGIN BOND
M  V30 1 1 2 1
M  V30 2 2 3 2
M  V30 3 1 4 3
M  V30 4 1 5 4
M  V30 5 1 6 5
M  V30 6 1 7 5
M  V30 7 1 7 6
M  V30 8 2 8 1
M  V30 9 1 8 4
M  V30 10 1 9 2
M  V30 11 1 10 3
M  V30 12 1 11 5
M  V30 13 1 12 6
M  V30 14 1 13 6
M  V30 15 1 14 7
M  V30 16 1 15 7
M  V30 17 1 16 1
M  V30 END BOND
M  V30 END CTAB
M  END
$$$$
R-group 515 (784-1)
     RDKit          3D

  0  0  0  0  0  0  0  0  0  0999 V3000
M  V30 BEGIN CTAB
M  V30 COUNTS 9 9 0 0 1
M  V30 BEGIN ATOM
M  V30 1 C 74.182700 55.097600 41.842300 0
M  V30 2 C 75.272400 55.580400 41.070000 0
M  V30 3 C 75.437400 56.857900 41.482400 0
M  V30 4 N 74.437900 57.105600 42.387500 0
M  V30 5 N 73.672300 56.037300 42.614100 0
M  V30 6 H 75.911100 55.061900 40.377000 0
M  V30 7 H 76.163800 57.607400 41.202800 0
M  V30 8 H 74.284000 57.981300 42.867500 0
M  V30 9 R 73.647300 53.696500 41.900700 0
M  V30 END ATOM
M  V30 BEGIN BOND
M  V30 1 1 2 1
M  V30 2 2 3 2
M  V30 3 1 4 3
M  V30 4 2 5 1
M  V30 5 1 5 4
M  V30 6 1 6 2
M  V30 7 1 7 3
M  V30 8 1 8 4
M  V30 9 1 9 1
M  V30 END BOND
M  V30 END CTAB
M  END
$$$$
R-group 516 (20584-2)
     RDKit          3D

  0  0  0  0  0  0  0  0  0  0999 V3000
M  V30 BEGIN CTAB
M  V30 COUNTS 19 19 0 0 1
M  V30 BEGIN ATOM
M  V30 1 N 73.411300 54.413400 42.124600 0
M  V30 2 C 74.387500 55.096400 41.527100 0
M  V30 3 O 75.272200 54.577900 40.873700 0
M  V30 4 C 74.311300 56.539700 41.663900 0 CFG=1
M  V30 5 C 75.038100 57.258000 40.568300 0
M  V30 6 C 73.515000 57.314400 40.638600 0
M  V30 7 C 72.699700 56.601200 39.558800 0
M  V30 8 C 72.725100 58.456700 41.251100 0
M  V30 9 H 74.407300 56.944000 42.671900 0
M  V30 10 H 75.682100 58.057800 40.925100 0
M  V30 11 H 75.459500 56.717900 39.725300 0
M  V30 12 H 72.489700 57.257700 38.717600 0
M  V30 13 H 73.243700 55.747900 39.149200 0
M  V30 14 H 71.753100 56.242800 39.963300 0
M  V30 15 H 72.117000 58.989100 40.525000 0
M  V30 16 H 72.083800 58.058900 42.029100 0
M  V30 17 H 73.371600 59.171100 41.740200 0
M  V30 18 H 72.754400 54.915200 42.709900 0
M  V30 19 R 73.303900 52.971600 42.109500 0
M  V30 END ATOM
M  V30 BEGIN BOND
M  V30 1 1 2 1
M  V30 2 2 3 2
M  V30 3 1 4 2
M  V30 4 1 5 4
M  V30 5 1 6 4
M  V30 6 1 6 5
M  V30 7 1 7 6
M  V30 8 1 8 6
M  V30 9 1 4 9 CFG=1
M  V30 10 1 10 5
M  V30 11 1 11 5
M  V30 12 1 12 7
M  V30 13 1 13 7
M  V30 14 1 14 7
M  V30 15 1 15 8
M  V30 16 1 16 8
M  V30 17 1 17 8
M  V30 18 1 18 1
M  V30 19 1 19 1
M  V30 END BOND
M  V30 END CTAB
M  END
$$$$
R-group 517 (27359-1)
     RDKit          3D

  0  0  0  0  0  0  0  0  0  0999 V3000
M  V30 BEGIN CTAB
M  V30 COUNTS 16 16 0 0 1
M  V30 BEGIN ATOM
M  V30 1 C 72.917000 57.257900 39.456600 0
M  V30 2 O 73.546700 56.032600 39.732800 0
M  V30 3 C 74.170600 56.007600 40.924400 0
M  V30 4 C 75.248200 56.857200 41.306000 0
M  V30 5 C 75.672600 56.620900 42.577800 0
M  V30 6 S 74.872300 55.261400 43.279700 0
M  V30 7 C 73.819900 55.136600 41.921700 0
M  V30 8 C 72.728100 54.135400 41.944900 0
M  V30 9 H 72.342300 57.173100 38.540400 0
M  V30 10 H 72.229800 57.541300 40.256600 0
M  V30 11 H 73.651200 58.054500 39.324900 0
M  V30 12 H 75.669200 57.601400 40.647700 0
M  V30 13 H 76.469200 57.121100 43.115000 0
M  V30 14 H 71.932000 54.450600 41.266600 0
M  V30 15 H 72.260800 54.107000 42.924700 0
M  V30 16 R 73.227500 52.741300 41.568400 0
M  V30 END ATOM
M  V30 BEGIN BOND
M  V30 1 1 2 1
M  V30 2 1 3 2
M  V30 3 1 4 3
M  V30 4 2 5 4
M  V30 5 1 6 5
M  V30 6 2 7 3
M  V30 7 1 7 6
M  V30 8 1 8 7
M  V30 9 1 9 1
M  V30 10 1 10 1
M  V30 11 1 11 1
M  V30 12 1 12 4
M  V30 13 1 13 5
M  V30 14 1 14 8
M  V30 15 1 15 8
M  V30 16 1 16 8
M  V30 END BOND
M  V30 END CTAB
M  END
$$$$
R-group 518 (14754-1)
     RDKit          3D

  0  0  0  0  0  0  0  0  0  0999 V3000
M  V30 BEGIN CTAB
M  V30 COUNTS 21 20 0 0 1
M  V30 BEGIN ATOM
M  V30 1 C 73.641500 57.667300 43.331800 0
M  V30 2 C 73.522700 57.790300 41.813900 0
M  V30 3 C 74.536800 56.986500 40.951900 0
M  V30 4 C 74.141100 57.190200 39.466500 0
M  V30 5 C 76.014700 57.426400 41.184000 0
M  V30 6 C 74.505400 55.466800 41.178300 0
M  V30 7 O 75.272400 54.791800 40.525300 0
M  V30 8 N 73.658200 54.876700 42.019700 0
M  V30 9 H 72.873700 58.274400 43.809100 0
M  V30 10 H 74.605200 58.047800 43.677600 0
M  V30 11 H 73.501300 56.658000 43.713400 0
M  V30 12 H 72.501100 57.552000 41.513100 0
M  V30 13 H 73.647800 58.850700 41.594600 0
M  V30 14 H 74.041400 58.235900 39.182800 0
M  V30 15 H 74.866400 56.744100 38.784700 0
M  V30 16 H 73.178400 56.726000 39.246300 0
M  V30 17 H 76.239600 58.454500 40.925300 0
M  V30 18 H 76.315600 57.284800 42.221500 0
M  V30 19 H 76.712100 56.844500 40.576400 0
M  V30 20 H 73.065500 55.467100 42.588300 0
M  V30 21 R 73.447400 53.437300 42.138500 0
M  V30 END ATOM
M  V30 BEGIN BOND
M  V30 1 1 2 1
M  V30 2 1 3 2
M  V30 3 1 4 3
M  V30 4 1 5 3
M  V30 5 1 6 3
M  V30 6 2 7 6
M  V30 7 1 8 6
M  V30 8 1 9 1
M  V30 9 1 10 1
M  V30 10 1 11 1
M  V30 11 1 12 2
M  V30 12 1 13 2
M  V30 13 1 14 4
M  V30 14 1 15 4
M  V30 15 1 16 4
M  V30 16 1 17 5
M  V30 17 1 18 5
M  V30 18 1 19 5
M  V30 19 1 20 8
M  V30 20 1 21 8
M  V30 END BOND
M  V30 END CTAB
M  END
$$$$
R-group 519 (44223-3)
     RDKit          3D

  0  0  0  0  0  0  0  0  0  0999 V3000
M  V30 BEGIN CTAB
M  V30 COUNTS 16 16 0 0 1
M  V30 BEGIN ATOM
M  V30 1 C 73.875400 54.992500 42.343100 0 CFG=1
M  V30 2 C 74.735800 55.473900 43.513300 0
M  V30 3 C 75.113300 56.706900 42.704400 0
M  V30 4 C 74.729500 55.893700 41.441600 0 CFG=2
M  V30 5 C 73.841400 56.670000 40.477400 0
M  V30 6 N 73.710800 56.193400 39.247200 0
M  V30 7 O 73.264900 57.680600 40.822600 0
M  V30 8 H 72.908700 55.483200 42.507000 0
M  V30 9 H 74.073200 55.658000 44.355700 0
M  V30 10 H 75.616300 54.876200 43.745900 0
M  V30 11 H 74.483300 57.577000 42.953300 0
M  V30 12 H 76.163100 56.976600 42.770200 0
M  V30 13 H 75.564200 55.363700 40.985400 0
M  V30 14 H 74.139800 55.319100 38.997500 0
M  V30 15 H 73.254700 56.782900 38.560100 0
M  V30 16 R 73.571100 53.507600 42.063100 0
M  V30 END ATOM
M  V30 BEGIN BOND
M  V30 1 1 2 1
M  V30 2 1 3 2
M  V30 3 1 4 1
M  V30 4 1 4 3
M  V30 5 1 5 4
M  V30 6 1 6 5
M  V30 7 2 7 5
M  V30 8 1 1 8 CFG=1
M  V30 9 1 9 2
M  V30 10 1 10 2
M  V30 11 1 11 3
M  V30 12 1 12 3
M  V30 13 1 4 13 CFG=3
M  V30 14 1 14 6
M  V30 15 1 15 6
M  V30 16 1 16 1
M  V30 END BOND
M  V30 END CTAB
M  END
$$$$
R-group 520 (40067-2)
     RDKit          3D

  0  0  0  0  0  0  0  0  0  0999 V3000
M  V30 BEGIN CTAB
M  V30 COUNTS 16 16 0 0 1
M  V30 BEGIN ATOM
M  V30 1 C 74.208200 55.217000 41.544800 0 CFG=2
M  V30 2 O 73.824600 56.055900 42.658900 0
M  V30 3 C 73.576500 57.150200 41.752400 0
M  V30 4 C 73.594600 56.226100 40.527600 0
M  V30 5 C 74.494100 56.710600 39.393700 0
M  V30 6 C 72.227300 55.943600 39.885200 0
M  V30 7 H 75.296100 55.244000 41.438400 0
M  V30 8 H 74.395200 57.870600 41.767000 0
M  V30 9 H 72.626900 57.653700 41.935100 0
M  V30 10 H 74.171500 57.683500 39.023300 0
M  V30 11 H 75.529100 56.813600 39.725100 0
M  V30 12 H 74.476300 56.031500 38.541200 0
M  V30 13 H 71.659900 56.859800 39.726100 0
M  V30 14 H 72.328800 55.472800 38.912800 0
M  V30 15 H 71.611300 55.255800 40.465400 0
M  V30 16 R 73.738900 53.750200 41.759100 0
M  V30 END ATOM
M  V30 BEGIN BOND
M  V30 1 1 2 1
M  V30 2 1 3 2
M  V30 3 1 4 1
M  V30 4 1 4 3
M  V30 5 1 5 4
M  V30 6 1 6 4
M  V30 7 1 1 7 CFG=3
M  V30 8 1 8 3
M  V30 9 1 9 3
M  V30 10 1 10 5
M  V30 11 1 11 5
M  V30 12 1 12 5
M  V30 13 1 13 6
M  V30 14 1 14 6
M  V30 15 1 15 6
M  V30 16 1 16 1
M  V30 END BOND
M  V30 END CTAB
M  END
$$$$
R-group 521 (14288-1)
     RDKit          3D

  0  0  0  0  0  0  0  0  0  0999 V3000
M  V30 BEGIN CTAB
M  V30 COUNTS 15 15 0 0 1
M  V30 BEGIN ATOM
M  V30 1 C 74.149500 54.812600 42.107600 0
M  V30 2 O 73.665600 55.589600 41.106000 0
M  V30 3 C 74.022100 56.857800 41.351200 0
M  V30 4 C 73.273700 57.884200 40.565600 0
M  V30 5 C 74.940000 56.847300 42.357500 0
M  V30 6 C 74.954500 55.558600 42.925000 0
M  V30 7 C 75.687200 55.233400 44.204800 0
M  V30 8 H 73.233500 58.825600 41.111000 0
M  V30 9 H 73.686400 58.045400 39.571800 0
M  V30 10 H 72.243200 57.562500 40.418700 0
M  V30 11 H 75.471300 57.658000 42.793700 0
M  V30 12 H 76.215900 56.125100 44.523500 0
M  V30 13 H 74.981000 54.965800 44.991600 0
M  V30 14 H 76.436100 54.446700 44.124800 0
M  V30 15 R 73.654500 53.404600 42.069800 0
M  V30 END ATOM
M  V30 BEGIN BOND
M  V30 1 1 2 1
M  V30 2 1 3 2
M  V30 3 1 4 3
M  V30 4 2 5 3
M  V30 5 2 6 1
M  V30 6 1 6 5
M  V30 7 1 7 6
M  V30 8 1 8 4
M  V30 9 1 9 4
M  V30 10 1 10 4
M  V30 11 1 11 5
M  V30 12 1 12 7
M  V30 13 1 13 7
M  V30 14 1 14 7
M  V30 15 1 15 1
M  V30 END BOND
M  V30 END CTAB
M  END
$$$$
R-group 522 (22915-2)
     RDKit          3D

  0  0  0  0  0  0  0  0  0  0999 V3000
M  V30 BEGIN CTAB
M  V30 COUNTS 23 24 0 0 1
M  V30 BEGIN ATOM
M  V30 1 O 73.695400 54.621600 42.049800 0
M  V30 2 C 75.046000 55.071600 42.054800 0 CFG=1
M  V30 3 C 75.312700 56.033100 40.918900 0
M  V30 4 C 74.791600 57.347200 41.442100 0 CFG=1
M  V30 5 C 73.435700 57.731200 40.835600 0
M  V30 6 C 72.724000 58.405500 41.994200 0
M  V30 7 C 73.085000 57.532500 43.191900 0
M  V30 8 C 74.581800 57.254500 42.958800 0 CFG=1
M  V30 9 C 75.123200 55.881200 43.327800 0
M  V30 10 H 75.813200 54.315600 42.028400 0
M  V30 11 H 76.390700 56.106700 40.742200 0
M  V30 12 H 74.847200 55.756600 39.976100 0
M  V30 13 H 75.597400 58.048700 41.323000 0
M  V30 14 H 73.487700 58.341500 39.936100 0
M  V30 15 H 72.872000 56.836700 40.568400 0
M  V30 16 H 73.101600 59.411200 42.119000 0
M  V30 17 H 71.670900 58.513700 41.828100 0
M  V30 18 H 72.476900 56.625100 43.198700 0
M  V30 19 H 72.872600 58.050000 44.123500 0
M  V30 20 H 75.153700 58.021100 43.489400 0
M  V30 21 H 74.563800 55.404100 44.124500 0
M  V30 22 H 76.159900 55.972800 43.650900 0
M  V30 23 R 73.473600 53.230100 41.942300 0
M  V30 END ATOM
M  V30 BEGIN BOND
M  V30 1 1 2 1
M  V30 2 1 3 2
M  V30 3 1 4 3
M  V30 4 1 5 4
M  V30 5 1 6 5
M  V30 6 1 7 6
M  V30 7 1 8 4
M  V30 8 1 8 7
M  V30 9 1 9 2
M  V30 10 1 9 8
M  V30 11 1 2 10 CFG=1
M  V30 12 1 11 3
M  V30 13 1 12 3
M  V30 14 1 4 13 CFG=1
M  V30 15 1 14 5
M  V30 16 1 15 5
M  V30 17 1 16 6
M  V30 18 1 17 6
M  V30 19 1 18 7
M  V30 20 1 19 7
M  V30 21 1 8 20 CFG=1
M  V30 22 1 21 9
M  V30 23 1 22 9
M  V30 24 1 23 1
M  V30 END BOND
M  V30 END CTAB
M  END
$$$$
R-group 523 (11920-2)
     RDKit          3D

  0  0  0  0  0  0  0  0  0  0999 V3000
M  V30 BEGIN CTAB
M  V30 COUNTS 15 14 0 0 1
M  V30 BEGIN ATOM
M  V30 1 C 73.505900 57.612700 43.098800 0
M  V30 2 C 73.508700 56.086000 42.947300 0
M  V30 3 C 74.047900 55.473400 41.636100 0 CFG=2
M  V30 4 C 75.540400 55.744200 41.488600 0
M  V30 5 O 73.526100 56.183400 40.523900 0
M  V30 6 H 72.936600 57.863200 43.988200 0
M  V30 7 H 74.502100 58.021300 43.234700 0
M  V30 8 H 73.033400 58.121700 42.264500 0
M  V30 9 H 72.475600 55.758700 43.079800 0
M  V30 10 H 74.064500 55.654100 43.780000 0
M  V30 11 H 76.055800 55.127000 42.182500 0
M  V30 12 H 75.945800 55.566700 40.498700 0
M  V30 13 H 75.778800 56.778200 41.705100 0
M  V30 14 H 72.581900 56.197100 40.612600 0
M  V30 15 R 73.673300 53.927300 41.646500 0
M  V30 END ATOM
M  V30 BEGIN BOND
M  V30 1 1 2 1
M  V30 2 1 3 2
M  V30 3 1 4 3
M  V30 4 1 5 3
M  V30 5 1 6 1
M  V30 6 1 7 1
M  V30 7 1 8 1
M  V30 8 1 9 2
M  V30 9 1 10 2
M  V30 10 1 11 4
M  V30 11 1 12 4
M  V30 12 1 13 4
M  V30 13 1 14 5
M  V30 14 1 3 15 CFG=3
M  V30 END BOND
M  V30 END CTAB
M  END
$$$$
R-group 524 (14376-1)
     RDKit          3D

  0  0  0  0  0  0  0  0  0  0999 V3000
M  V30 BEGIN CTAB
M  V30 COUNTS 24 26 0 0 1
M  V30 BEGIN ATOM
M  V30 1 C 73.888000 55.079200 41.806100 0 CFG=2
M  V30 2 C 73.496400 55.746600 43.134900 0
M  V30 3 C 73.950100 57.196900 43.170600 0 CFG=2
M  V30 4 C 73.427400 57.977500 41.950600 0
M  V30 5 C 73.977300 57.340200 40.665200 0 CFG=1
M  V30 6 C 75.522200 57.252200 40.692300 0
M  V30 7 C 75.912100 56.400800 41.887300 0 CFG=1
M  V30 8 C 75.491700 57.076100 43.198900 0
M  V30 9 O 75.289200 55.128400 41.742300 0
M  V30 10 C 73.416800 55.912700 40.577500 0
M  V30 11 H 72.427500 55.658500 43.319700 0
M  V30 12 H 74.067000 55.257600 43.933600 0
M  V30 13 H 73.535500 57.669500 44.055800 0
M  V30 14 H 73.672200 59.026600 42.029200 0
M  V30 15 H 72.341500 57.979700 41.929100 0
M  V30 16 H 73.660600 57.916000 39.795700 0
M  V30 17 H 75.884000 56.793400 39.773900 0
M  V30 18 H 76.072500 58.181200 40.822000 0
M  V30 19 H 76.981900 56.262300 41.895200 0
M  V30 20 H 76.007000 58.015500 43.324800 0
M  V30 21 H 75.844300 56.465000 44.030700 0
M  V30 22 H 73.758200 55.488700 39.634000 0
M  V30 23 H 72.339100 55.921100 40.521900 0
M  V30 24 R 73.549100 53.552100 41.817500 0
M  V30 END ATOM
M  V30 BEGIN BOND
M  V30 1 1 2 1
M  V30 2 1 3 2
M  V30 3 1 4 3
M  V30 4 1 5 4
M  V30 5 1 6 5
M  V30 6 1 7 6
M  V30 7 1 8 3
M  V30 8 1 8 7
M  V30 9 1 9 1
M  V30 10 1 9 7
M  V30 11 1 10 1
M  V30 12 1 10 5
M  V30 13 1 11 2
M  V30 14 1 12 2
M  V30 15 1 3 13 CFG=1
M  V30 16 1 14 4
M  V30 17 1 15 4
M  V30 18 1 5 16 CFG=3
M  V30 19 1 17 6
M  V30 20 1 18 6
M  V30 21 1 7 19 CFG=1
M  V30 22 1 20 8
M  V30 23 1 21 8
M  V30 24 1 22 10
M  V30 25 1 23 10
M  V30 26 1 1 24 CFG=3
M  V30 END BOND
M  V30 END CTAB
M  END
$$$$
R-group 525 (3963-1)
     RDKit          3D

  0  0  0  0  0  0  0  0  0  0999 V3000
M  V30 BEGIN CTAB
M  V30 COUNTS 13 12 0 0 1
M  V30 BEGIN ATOM
M  V30 1 C 73.182400 57.977900 41.597400 0
M  V30 2 C 73.826300 57.471100 42.886000 0
M  V30 3 S 74.830100 55.977900 42.524600 0
M  V30 4 O 75.672200 55.658000 43.683800 0
M  V30 5 O 75.394400 56.079800 41.172300 0
M  V30 6 N 73.578300 54.825100 42.524700 0
M  V30 7 H 72.681400 58.936600 41.729500 0
M  V30 8 H 73.924400 58.058000 40.815100 0
M  V30 9 H 72.472300 57.258000 41.210500 0
M  V30 10 H 73.078100 57.217600 43.636500 0
M  V30 11 H 74.472300 58.223000 43.324700 0
M  V30 12 H 73.253400 54.744500 43.502200 0
M  V30 13 R 73.686900 53.489200 41.942700 0
M  V30 END ATOM
M  V30 BEGIN BOND
M  V30 1 1 2 1
M  V30 2 1 3 2
M  V30 3 2 4 3
M  V30 4 2 5 3
M  V30 5 1 6 3
M  V30 6 1 7 1
M  V30 7 1 8 1
M  V30 8 1 9 1
M  V30 9 1 10 2
M  V30 10 1 11 2
M  V30 11 1 12 6
M  V30 12 1 13 6
M  V30 END BOND
M  V30 END CTAB
M  END
$$$$
R-group 526 (6669-2)
     RDKit          3D

  0  0  0  0  0  0  0  0  0  0999 V3000
M  V30 BEGIN CTAB
M  V30 COUNTS 10 10 0 0 1
M  V30 BEGIN ATOM
M  V30 1 C 73.918700 55.301500 42.140700 0 CFG=1
M  V30 2 C 75.356400 55.743000 42.424300 0
M  V30 3 N 75.217800 56.787300 41.417200 0
M  V30 4 C 73.983500 56.363200 41.011800 0
M  V30 5 O 73.272400 56.745400 40.108300 0
M  V30 6 H 73.284900 55.642700 42.961100 0
M  V30 7 H 75.531100 56.100500 43.440300 0
M  V30 8 H 76.072100 54.993100 42.124500 0
M  V30 9 H 75.836500 57.507500 41.074600 0
M  V30 10 R 73.586600 53.816400 41.779400 0
M  V30 END ATOM
M  V30 BEGIN BOND
M  V30 1 1 2 1
M  V30 2 1 3 2
M  V30 3 1 4 1
M  V30 4 1 4 3
M  V30 5 2 5 4
M  V30 6 1 1 6 CFG=1
M  V30 7 1 7 2
M  V30 8 1 8 2
M  V30 9 1 9 3
M  V30 10 1 10 1
M  V30 END BOND
M  V30 END CTAB
M  END
$$$$
R-group 527 (41240-1)
     RDKit          3D

  0  0  0  0  0  0  0  0  0  0999 V3000
M  V30 BEGIN CTAB
M  V30 COUNTS 21 20 0 0 1
M  V30 BEGIN ATOM
M  V30 1 O 73.672400 54.917600 42.129100 0
M  V30 2 C 74.899000 55.554300 41.793400 0 CFG=2
M  V30 3 C 75.639500 55.911100 43.093600 0
M  V30 4 C 74.652500 56.799400 40.889600 0
M  V30 5 C 73.953800 56.447400 39.556000 0
M  V30 6 C 76.056200 57.393600 40.579300 0
M  V30 7 C 73.673200 57.790400 41.578700 0
M  V30 8 H 75.552900 54.866100 41.267100 0
M  V30 9 H 76.688400 56.058900 42.870200 0
M  V30 10 H 75.272100 56.825400 43.548100 0
M  V30 11 H 75.585500 55.132800 43.847600 0
M  V30 12 H 73.855400 57.330600 38.925100 0
M  V30 13 H 72.943500 56.078900 39.726800 0
M  V30 14 H 74.472800 55.713200 38.955300 0
M  V30 15 H 76.472000 57.943900 41.422600 0
M  V30 16 H 76.767100 56.605100 40.332800 0
M  V30 17 H 76.072200 58.058000 39.724700 0
M  V30 18 H 74.072300 58.332300 42.429400 0
M  V30 19 H 73.272300 58.523700 40.880600 0
M  V30 20 H 72.807400 57.258300 41.963100 0
M  V30 21 R 73.549500 53.502900 41.952700 0
M  V30 END ATOM
M  V30 BEGIN BOND
M  V30 1 1 2 1
M  V30 2 1 3 2
M  V30 3 1 4 2
M  V30 4 1 5 4
M  V30 5 1 6 4
M  V30 6 1 7 4
M  V30 7 1 2 8 CFG=3
M  V30 8 1 9 3
M  V30 9 1 10 3
M  V30 10 1 11 3
M  V30 11 1 12 5
M  V30 12 1 13 5
M  V30 13 1 14 5
M  V30 14 1 15 6
M  V30 15 1 16 6
M  V30 16 1 17 6
M  V30 17 1 18 7
M  V30 18 1 19 7
M  V30 19 1 20 7
M  V30 20 1 21 1
M  V30 END BOND
M  V30 END CTAB
M  END
$$$$
R-group 528 (20061-3)
     RDKit          3D

  0  0  0  0  0  0  0  0  0  0999 V3000
M  V30 BEGIN CTAB
M  V30 COUNTS 15 15 0 0 1
M  V30 BEGIN ATOM
M  V30 1 C 74.358900 55.250100 41.716200 0 CFG=2
M  V30 2 C 74.336000 55.907800 43.099700 0
M  V30 3 C 73.728100 57.296300 42.980900 0
M  V30 4 C 73.792400 57.602500 41.506200 0 CFG=2
M  V30 5 F 72.833700 58.457600 41.181500 0
M  V30 6 C 73.689000 56.268500 40.767200 0
M  V30 7 H 75.407200 55.194400 41.415200 0
M  V30 8 H 73.677200 55.336700 43.724600 0
M  V30 9 H 75.327200 55.924100 43.554900 0
M  V30 10 H 74.259600 58.044600 43.569000 0
M  V30 11 H 72.695700 57.277500 43.326000 0
M  V30 12 H 74.759300 58.058000 41.324700 0
M  V30 13 H 74.207300 56.316700 39.808800 0
M  V30 14 H 72.653600 56.029000 40.525400 0
M  V30 15 R 73.769500 53.806200 41.746400 0
M  V30 END ATOM
M  V30 BEGIN BOND
M  V30 1 1 2 1
M  V30 2 1 3 2
M  V30 3 1 4 3
M  V30 4 1 5 4
M  V30 5 1 6 1
M  V30 6 1 6 4
M  V30 7 1 1 7 CFG=3
M  V30 8 1 8 2
M  V30 9 1 9 2
M  V30 10 1 10 3
M  V30 11 1 11 3
M  V30 12 1 4 12 CFG=1
M  V30 13 1 13 6
M  V30 14 1 14 6
M  V30 15 1 15 1
M  V30 END BOND
M  V30 END CTAB
M  END
$$$$
R-group 529 (10823-1)
     RDKit          3D

  0  0  0  0  0  0  0  0  0  0999 V3000
M  V30 BEGIN CTAB
M  V30 COUNTS 10 10 0 0 1
M  V30 BEGIN ATOM
M  V30 1 C 74.595200 55.166600 41.696800 0 CFG=1
M  V30 2 C 73.872500 56.446200 41.298200 0
M  V30 3 C 73.940500 56.788100 42.778000 0
M  V30 4 O 74.819000 55.667000 43.032800 0
M  V30 5 H 75.549200 55.102000 41.171600 0
M  V30 6 H 74.473200 57.107000 40.672300 0
M  V30 7 H 72.872700 56.301200 40.901800 0
M  V30 8 H 74.414200 57.744700 42.986400 0
M  V30 9 H 72.990000 56.687200 43.304300 0
M  V30 10 R 73.866400 53.814000 41.782200 0
M  V30 END ATOM
M  V30 BEGIN BOND
M  V30 1 1 2 1
M  V30 2 1 3 2
M  V30 3 1 4 1
M  V30 4 1 4 3
M  V30 5 1 1 5 CFG=3
M  V30 6 1 6 2
M  V30 7 1 7 2
M  V30 8 1 8 3
M  V30 9 1 9 3
M  V30 10 1 10 1
M  V30 END BOND
M  V30 END CTAB
M  END
$$$$
R-group 530 (40505-1)
     RDKit          3D

  0  0  0  0  0  0  0  0  0  0999 V3000
M  V30 BEGIN CTAB
M  V30 COUNTS 13 13 0 0 1
M  V30 BEGIN ATOM
M  V30 1 O 73.633300 54.781900 41.557400 0
M  V30 2 C 73.725700 55.639800 42.662800 0
M  V30 3 C 75.105700 55.502300 43.299900 0
M  V30 4 C 75.484000 56.859600 42.758100 0
M  V30 5 F 75.673000 57.740900 43.725400 0
M  V30 6 F 76.481200 56.845700 41.872800 0
M  V30 7 C 74.098900 57.029200 42.141700 0
M  V30 8 H 72.863000 55.661700 43.325000 0
M  V30 9 H 75.121200 55.369400 44.379900 0
M  V30 10 H 75.672600 54.730400 42.809200 0
M  V30 11 H 74.111600 57.110600 41.053400 0
M  V30 12 H 73.515100 57.831200 42.596400 0
M  V30 13 R 73.334100 53.415100 41.788800 0
M  V30 END ATOM
M  V30 BEGIN BOND
M  V30 1 1 2 1
M  V30 2 1 3 2
M  V30 3 1 4 3
M  V30 4 1 5 4
M  V30 5 1 6 4
M  V30 6 1 7 2
M  V30 7 1 7 4
M  V30 8 1 8 2
M  V30 9 1 9 3
M  V30 10 1 10 3
M  V30 11 1 11 7
M  V30 12 1 12 7
M  V30 13 1 13 1
M  V30 END BOND
M  V30 END CTAB
M  END
$$$$
R-group 531 (10940-1)
     RDKit          3D

  0  0  0  0  0  0  0  0  0  0999 V3000
M  V30 BEGIN CTAB
M  V30 COUNTS 11 11 0 0 1
M  V30 BEGIN ATOM
M  V30 1 C 73.546700 54.937100 42.761700 0
M  V30 2 C 74.163800 55.802700 41.734000 0
M  V30 3 C 73.595800 56.278400 40.524000 0
M  V30 4 N 74.482600 56.857300 39.768300 0
M  V30 5 O 75.668400 56.858000 40.524900 0
M  V30 6 C 75.438900 56.266800 41.705400 0
M  V30 7 H 72.520400 55.258300 42.925700 0
M  V30 8 H 74.070700 55.080200 43.712900 0
M  V30 9 H 72.596000 56.150600 40.140800 0
M  V30 10 H 76.284600 56.180700 42.373300 0
M  V30 11 R 73.516000 53.446800 42.335500 0
M  V30 END ATOM
M  V30 BEGIN BOND
M  V30 1 1 2 1
M  V30 2 1 3 2
M  V30 3 2 4 3
M  V30 4 1 5 4
M  V30 5 2 6 2
M  V30 6 1 6 5
M  V30 7 1 7 1
M  V30 8 1 8 1
M  V30 9 1 9 3
M  V30 10 1 10 6
M  V30 11 1 11 1
M  V30 END BOND
M  V30 END CTAB
M  END
$$$$
R-group 532 (2327-1)
     RDKit          3D

  0  0  0  0  0  0  0  0  0  0999 V3000
M  V30 BEGIN CTAB
M  V30 COUNTS 16 16 0 0 1
M  V30 BEGIN ATOM
M  V30 1 C 73.960100 55.113700 41.649300 0 CFG=1
M  V30 2 C 73.366800 55.859700 40.426300 0
M  V30 3 C 73.721500 57.337400 40.471100 0
M  V30 4 C 73.309600 57.959900 41.808000 0
M  V30 5 O 73.921500 57.243200 42.864700 0
M  V30 6 C 73.557000 55.869200 42.932700 0
M  V30 7 H 75.046100 55.191600 41.556900 0
M  V30 8 H 73.758100 55.473200 39.485200 0
M  V30 9 H 72.290500 55.736900 40.364400 0
M  V30 10 H 74.801100 57.414600 40.348100 0
M  V30 11 H 73.272200 57.872600 39.637200 0
M  V30 12 H 73.672200 58.975500 41.865100 0
M  V30 13 H 72.232300 58.047500 41.926200 0
M  V30 14 H 72.489700 55.782500 43.137100 0
M  V30 15 H 74.073100 55.447400 43.788900 0
M  V30 16 R 73.601900 53.596000 41.733500 0
M  V30 END ATOM
M  V30 BEGIN BOND
M  V30 1 1 2 1
M  V30 2 1 3 2
M  V30 3 1 4 3
M  V30 4 1 5 4
M  V30 5 1 6 1
M  V30 6 1 6 5
M  V30 7 1 1 7 CFG=3
M  V30 8 1 8 2
M  V30 9 1 9 2
M  V30 10 1 10 3
M  V30 11 1 11 3
M  V30 12 1 12 4
M  V30 13 1 13 4
M  V30 14 1 14 6
M  V30 15 1 15 6
M  V30 16 1 16 1
M  V30 END BOND
M  V30 END CTAB
M  END
$$$$
R-group 533 (6808-1)
     RDKit          3D

  0  0  0  0  0  0  0  0  0  0999 V3000
M  V30 BEGIN CTAB
M  V30 COUNTS 18 17 0 0 1
M  V30 BEGIN ATOM
M  V30 1 C 73.750700 54.900300 42.271500 0
M  V30 2 O 74.919600 55.412900 41.653500 0
M  V30 3 C 74.851300 56.759300 41.192000 0
M  V30 4 C 74.138800 57.658800 42.227100 0
M  V30 5 C 74.122100 56.771300 39.829100 0
M  V30 6 C 76.330300 57.164800 41.028400 0
M  V30 7 H 73.754300 55.163400 43.324800 0
M  V30 8 H 72.872300 55.346500 41.835800 0
M  V30 9 H 74.071800 58.677100 41.868500 0
M  V30 10 H 74.666000 57.657200 43.181900 0
M  V30 11 H 73.103700 57.385000 42.422200 0
M  V30 12 H 74.569700 56.061200 39.136100 0
M  V30 13 H 73.071300 56.501500 39.927500 0
M  V30 14 H 74.150400 57.746100 39.343100 0
M  V30 15 H 76.832800 56.505700 40.321100 0
M  V30 16 H 76.472400 58.184900 40.671600 0
M  V30 17 H 76.862700 57.083300 41.976400 0
M  V30 18 R 73.605200 53.402000 42.054500 0
M  V30 END ATOM
M  V30 BEGIN BOND
M  V30 1 1 2 1
M  V30 2 1 3 2
M  V30 3 1 4 3
M  V30 4 1 5 3
M  V30 5 1 6 3
M  V30 6 1 7 1
M  V30 7 1 8 1
M  V30 8 1 9 4
M  V30 9 1 10 4
M  V30 10 1 11 4
M  V30 11 1 12 5
M  V30 12 1 13 5
M  V30 13 1 14 5
M  V30 14 1 15 6
M  V30 15 1 16 6
M  V30 16 1 17 6
M  V30 17 1 18 1
M  V30 END BOND
M  V30 END CTAB
M  END
$$$$
R-group 534 (10775-2)
     RDKit          3D

  0  0  0  0  0  0  0  0  0  0999 V3000
M  V30 BEGIN CTAB
M  V30 COUNTS 18 18 0 0 1
M  V30 BEGIN ATOM
M  V30 1 C 72.876500 58.688300 42.061400 0
M  V30 2 C 73.803100 57.847400 42.924600 0
M  V30 3 C 74.605500 56.891600 42.054500 0 CFG=1
M  V30 4 C 75.118200 55.594700 42.675700 0
M  V30 5 C 73.790200 54.953300 42.228100 0 CFG=1
M  V30 6 C 73.841900 55.980300 41.084500 0
M  V30 7 H 72.472200 59.589400 42.522600 0
M  V30 8 H 73.272600 58.858000 41.071800 0
M  V30 9 H 72.072200 58.056500 41.810900 0
M  V30 10 H 73.207400 57.319900 43.669900 0
M  V30 11 H 74.473400 58.458000 43.506000 0
M  V30 12 H 75.405900 57.411900 41.526100 0
M  V30 13 H 75.282700 55.630200 43.752300 0
M  V30 14 H 75.990100 55.219000 42.138400 0
M  V30 15 H 73.004800 55.253600 42.924600 0
M  V30 16 H 74.461900 55.702000 40.234700 0
M  V30 17 H 72.872300 56.328100 40.736700 0
M  V30 18 R 73.634000 53.452900 41.980400 0
M  V30 END ATOM
M  V30 BEGIN BOND
M  V30 1 1 2 1
M  V30 2 1 3 2
M  V30 3 1 4 3
M  V30 4 1 5 4
M  V30 5 1 6 3
M  V30 6 1 6 5
M  V30 7 1 7 1
M  V30 8 1 8 1
M  V30 9 1 9 1
M  V30 10 1 10 2
M  V30 11 1 11 2
M  V30 12 1 3 12 CFG=3
M  V30 13 1 13 4
M  V30 14 1 14 4
M  V30 15 1 5 15 CFG=1
M  V30 16 1 16 6
M  V30 17 1 17 6
M  V30 18 1 18 5
M  V30 END BOND
M  V30 END CTAB
M  END
$$$$
R-group 535 (16250-3)
     RDKit          3D

  0  0  0  0  0  0  0  0  0  0999 V3000
M  V30 BEGIN CTAB
M  V30 COUNTS 9 9 0 0 1
M  V30 BEGIN ATOM
M  V30 1 C 73.880400 55.308100 42.425600 0 CFG=1
M  V30 2 C 75.156400 56.130600 42.387700 0
M  V30 3 C 73.930600 56.614300 41.659200 0 CFG=2
M  V30 4 F 73.272300 57.685400 42.231800 0
M  V30 5 H 73.285400 55.376700 43.324700 0
M  V30 6 H 75.443300 56.652100 43.298900 0
M  V30 7 H 75.983400 55.756000 41.787700 0
M  V30 8 H 73.920500 56.664100 40.572800 0
M  V30 9 R 73.822500 53.917200 41.786100 0
M  V30 END ATOM
M  V30 BEGIN BOND
M  V30 1 1 2 1
M  V30 2 1 3 1
M  V30 3 1 3 2
M  V30 4 1 4 3
M  V30 5 1 1 5 CFG=1
M  V30 6 1 6 2
M  V30 7 1 7 2
M  V30 8 1 3 8 CFG=3
M  V30 9 1 9 1
M  V30 END BOND
M  V30 END CTAB
M  END
$$$$
R-group 536 (3033-1)
     RDKit          3D

  0  0  0  0  0  0  0  0  0  0999 V3000
M  V30 BEGIN CTAB
M  V30 COUNTS 21 21 0 0 1
M  V30 BEGIN ATOM
M  V30 1 C 73.812600 54.997300 41.917700 0
M  V30 2 C 75.257900 55.481700 42.202000 0
M  V30 3 C 75.558800 56.958500 41.921200 0
M  V30 4 C 75.869500 57.185400 40.439700 0
M  V30 5 C 74.615700 57.258100 39.534900 0
M  V30 6 C 73.758800 56.025400 39.454600 0
M  V30 7 C 73.073800 55.765300 40.788800 0
M  V30 8 H 73.271500 55.288000 42.820900 0
M  V30 9 H 75.481400 55.306700 43.254100 0
M  V30 10 H 75.968500 54.873000 41.650600 0
M  V30 11 H 74.759700 57.610000 42.276100 0
M  V30 12 H 76.445600 57.236200 42.492800 0
M  V30 13 H 76.471400 58.091000 40.331200 0
M  V30 14 H 76.534400 56.385700 40.124800 0
M  V30 15 H 73.943000 58.058000 39.832900 0
M  V30 16 H 74.872200 57.520900 38.524900 0
M  V30 17 H 72.973700 56.252300 38.734900 0
M  V30 18 H 74.283800 55.193900 39.015200 0
M  V30 19 H 72.117700 55.304000 40.524700 0
M  V30 20 H 72.872300 56.747900 41.210700 0
M  V30 21 R 73.631500 53.448100 41.864900 0
M  V30 END ATOM
M  V30 BEGIN BOND
M  V30 1 1 2 1
M  V30 2 1 3 2
M  V30 3 1 4 3
M  V30 4 1 5 4
M  V30 5 1 6 5
M  V30 6 1 7 1
M  V30 7 1 7 6
M  V30 8 1 8 1
M  V30 9 1 9 2
M  V30 10 1 10 2
M  V30 11 1 11 3
M  V30 12 1 12 3
M  V30 13 1 13 4
M  V30 14 1 14 4
M  V30 15 1 15 5
M  V30 16 1 16 5
M  V30 17 1 17 6
M  V30 18 1 18 6
M  V30 19 1 19 7
M  V30 20 1 20 7
M  V30 21 1 21 1
M  V30 END BOND
M  V30 END CTAB
M  END
$$$$
R-group 537 (11278-1)
     RDKit          3D

  0  0  0  0  0  0  0  0  0  0999 V3000
M  V30 BEGIN CTAB
M  V30 COUNTS 19 19 0 0 1
M  V30 BEGIN ATOM
M  V30 1 C 73.629700 54.804000 41.686100 0 CFG=2
M  V30 2 C 72.817000 55.359900 40.505200 0
M  V30 3 C 72.849900 56.874000 40.519300 0
M  V30 4 O 74.187700 57.258000 40.320200 0
M  V30 5 C 75.062600 56.888300 41.388200 0 CFG=2
M  V30 6 C 76.469900 57.388000 41.048400 0
M  V30 7 C 75.066800 55.362600 41.582700 0
M  V30 8 H 73.204800 55.214500 42.604600 0
M  V30 9 H 73.229100 55.043900 39.548300 0
M  V30 10 H 71.792100 54.991300 40.524700 0
M  V30 11 H 72.232700 57.257300 39.710900 0
M  V30 12 H 72.472200 57.272200 41.458000 0
M  V30 13 H 74.721700 57.372900 42.304400 0
M  V30 14 H 77.167000 57.189900 41.860600 0
M  V30 15 H 76.852600 56.911100 40.145100 0
M  V30 16 H 76.474100 58.459100 40.881100 0
M  V30 17 H 75.640700 55.126800 42.479100 0
M  V30 18 H 75.600300 54.904200 40.755900 0
M  V30 19 R 73.505100 53.262400 41.798100 0
M  V30 END ATOM
M  V30 BEGIN BOND
M  V30 1 1 2 1
M  V30 2 1 3 2
M  V30 3 1 4 3
M  V30 4 1 5 4
M  V30 5 1 6 5
M  V30 6 1 7 1
M  V30 7 1 7 5
M  V30 8 1 1 8 CFG=1
M  V30 9 1 9 2
M  V30 10 1 10 2
M  V30 11 1 11 3
M  V30 12 1 12 3
M  V30 13 1 5 13 CFG=1
M  V30 14 1 14 6
M  V30 15 1 15 6
M  V30 16 1 16 6
M  V30 17 1 17 7
M  V30 18 1 18 7
M  V30 19 1 19 1
M  V30 END BOND
M  V30 END CTAB
M  END
$$$$
R-group 538 (5701-1)
     RDKit          3D

  0  0  0  0  0  0  0  0  0  0999 V3000
M  V30 BEGIN CTAB
M  V30 COUNTS 16 16 0 0 1
M  V30 BEGIN ATOM
M  V30 1 O 73.902600 54.857600 41.936200 0
M  V30 2 C 73.639200 55.607400 43.106100 0
M  V30 3 C 74.267900 56.964400 42.925000 0
M  V30 4 C 75.795900 57.004100 42.781300 0
M  V30 5 C 75.617400 57.262100 41.285500 0
M  V30 6 C 74.155300 57.654500 41.568900 0
M  V30 7 H 72.564000 55.659000 43.281900 0
M  V30 8 H 74.086200 55.155600 43.981200 0
M  V30 9 H 73.942100 57.657800 43.700300 0
M  V30 10 H 76.260200 57.824500 43.324400 0
M  V30 11 H 76.288200 56.058300 43.008000 0
M  V30 12 H 76.256200 58.056600 40.900700 0
M  V30 13 H 75.707500 56.354600 40.686700 0
M  V30 14 H 73.429200 57.209100 40.886600 0
M  V30 15 H 73.951100 58.708500 41.724700 0
M  V30 16 R 73.542100 53.492500 41.976100 0
M  V30 END ATOM
M  V30 BEGIN BOND
M  V30 1 1 2 1
M  V30 2 1 3 2
M  V30 3 1 4 3
M  V30 4 1 5 4
M  V30 5 1 6 3
M  V30 6 1 6 5
M  V30 7 1 7 2
M  V30 8 1 8 2
M  V30 9 1 9 3
M  V30 10 1 10 4
M  V30 11 1 11 4
M  V30 12 1 12 5
M  V30 13 1 13 5
M  V30 14 1 14 6
M  V30 15 1 15 6
M  V30 16 1 16 1
M  V30 END BOND
M  V30 END CTAB
M  END
$$$$
R-group 539 (1369-1)
     RDKit          3D

  0  0  0  0  0  0  0  0  0  0999 V3000
M  V30 BEGIN CTAB
M  V30 COUNTS 10 10 0 0 1
M  V30 BEGIN ATOM
M  V30 1 C 73.915700 54.920400 41.834400 0
M  V30 2 C 73.672300 55.854900 40.781900 0
M  V30 3 C 73.892200 57.101000 41.270300 0
M  V30 4 N 74.423600 56.955700 42.524800 0
M  V30 5 C 74.472300 55.632800 42.864000 0
M  V30 6 H 73.258500 55.663500 39.804700 0
M  V30 7 H 73.705800 58.057100 40.820900 0
M  V30 8 H 74.819100 55.335400 43.842100 0
M  V30 9 H 74.712600 57.715500 43.125300 0
M  V30 10 R 73.591200 53.449300 41.810900 0
M  V30 END ATOM
M  V30 BEGIN BOND
M  V30 1 1 2 1
M  V30 2 2 3 2
M  V30 3 1 4 3
M  V30 4 2 5 1
M  V30 5 1 5 4
M  V30 6 1 6 2
M  V30 7 1 7 3
M  V30 8 1 8 5
M  V30 9 1 9 4
M  V30 10 1 10 1
M  V30 END BOND
M  V30 END CTAB
M  END
$$$$
R-group 540 (11920-1)
     RDKit          3D

  0  0  0  0  0  0  0  0  0  0999 V3000
M  V30 BEGIN CTAB
M  V30 COUNTS 15 14 0 0 1
M  V30 BEGIN ATOM
M  V30 1 C 76.004400 57.070100 41.785700 0
M  V30 2 C 75.547300 55.639000 41.466200 0
M  V30 3 C 74.049900 55.327300 41.669500 0 CFG=1
M  V30 4 C 73.517700 56.013500 42.942100 0
M  V30 5 O 73.427000 55.941000 40.546300 0
M  V30 6 H 77.016000 57.257600 41.424400 0
M  V30 7 H 75.346700 57.797600 41.324500 0
M  V30 8 H 76.004600 57.258400 42.860100 0
M  V30 9 H 76.072200 54.985000 42.125800 0
M  V30 10 H 75.879900 55.383700 40.462800 0
M  V30 11 H 74.072200 55.658300 43.809700 0
M  V30 12 H 73.596500 57.099800 42.910800 0
M  V30 13 H 72.472000 55.778400 43.127300 0
M  V30 14 H 73.686900 56.850300 40.519100 0
M  V30 15 R 73.698000 53.783800 41.751900 0
M  V30 END ATOM
M  V30 BEGIN BOND
M  V30 1 1 2 1
M  V30 2 1 3 2
M  V30 3 1 4 3
M  V30 4 1 5 3
M  V30 5 1 6 1
M  V30 6 1 7 1
M  V30 7 1 8 1
M  V30 8 1 9 2
M  V30 9 1 10 2
M  V30 10 1 11 4
M  V30 11 1 12 4
M  V30 12 1 13 4
M  V30 13 1 14 5
M  V30 14 1 3 15 CFG=1
M  V30 END BOND
M  V30 END CTAB
M  END
$$$$
R-group 541 (39066-1)
     RDKit          3D

  0  0  0  0  0  0  0  0  0  0999 V3000
M  V30 BEGIN CTAB
M  V30 COUNTS 18 18 0 0 1
M  V30 BEGIN ATOM
M  V30 1 C 74.051400 55.346200 41.826100 0
M  V30 2 C 73.552000 55.896500 43.178400 0
M  V30 3 C 75.571800 55.654500 41.787400 0
M  V30 4 C 73.303700 56.118800 40.724800 0
M  V30 5 C 73.403600 57.613700 40.623800 0
M  V30 6 C 73.954000 56.750800 39.511600 0
M  V30 7 H 73.694800 56.972600 43.273500 0
M  V30 8 H 72.489500 55.698500 43.324700 0
M  V30 9 H 74.090800 55.445300 44.010000 0
M  V30 10 H 75.779200 56.722900 41.806700 0
M  V30 11 H 76.070800 55.258200 42.666100 0
M  V30 12 H 76.072000 55.258300 40.908800 0
M  V30 13 H 72.314500 55.736400 40.523300 0
M  V30 14 H 72.472900 58.155300 40.476500 0
M  V30 15 H 74.094600 58.060900 41.325000 0
M  V30 16 H 75.033900 56.721400 39.400500 0
M  V30 17 H 73.398900 56.734700 38.576200 0
M  V30 18 R 73.719300 53.797600 41.751400 0
M  V30 END ATOM
M  V30 BEGIN BOND
M  V30 1 1 2 1
M  V30 2 1 3 1
M  V30 3 1 4 1
M  V30 4 1 5 4
M  V30 5 1 6 4
M  V30 6 1 6 5
M  V30 7 1 7 2
M  V30 8 1 8 2
M  V30 9 1 9 2
M  V30 10 1 10 3
M  V30 11 1 11 3
M  V30 12 1 12 3
M  V30 13 1 13 4
M  V30 14 1 14 5
M  V30 15 1 15 5
M  V30 16 1 16 6
M  V30 17 1 17 6
M  V30 18 1 18 1
M  V30 END BOND
M  V30 END CTAB
M  END
$$$$
R-group 542 (15710-1)
     RDKit          3D

  0  0  0  0  0  0  0  0  0  0999 V3000
M  V30 BEGIN CTAB
M  V30 COUNTS 15 15 0 0 1
M  V30 BEGIN ATOM
M  V30 1 C 72.774300 54.282100 41.926600 0
M  V30 2 N 73.772800 55.325200 41.681300 0
M  V30 3 C 73.674200 55.995900 40.449100 0
M  V30 4 C 74.616300 56.847400 40.048700 0
M  V30 5 C 75.740000 57.084100 40.924000 0
M  V30 6 C 75.736800 56.592500 42.160500 0
M  V30 7 C 74.751600 55.632700 42.584500 0
M  V30 8 O 74.874100 55.121700 43.684100 0
M  V30 9 H 71.882600 54.457100 41.322100 0
M  V30 10 H 72.391300 54.331900 42.924900 0
M  V30 11 H 72.809600 55.758700 39.843900 0
M  V30 12 H 74.526800 57.350700 39.095800 0
M  V30 13 H 76.514700 57.779200 40.636100 0
M  V30 14 H 76.491500 56.881100 42.861500 0
M  V30 15 R 73.271100 52.870600 41.577000 0
M  V30 END ATOM
M  V30 BEGIN BOND
M  V30 1 1 2 1
M  V30 2 1 3 2
M  V30 3 2 4 3
M  V30 4 1 5 4
M  V30 5 2 6 5
M  V30 6 1 7 2
M  V30 7 1 7 6
M  V30 8 2 8 7
M  V30 9 1 9 1
M  V30 10 1 10 1
M  V30 11 1 11 3
M  V30 12 1 12 4
M  V30 13 1 13 5
M  V30 14 1 14 6
M  V30 15 1 15 1
M  V30 END BOND
M  V30 END CTAB
M  END
$$$$
R-group 543 (8018-1)
     RDKit          3D

  0  0  0  0  0  0  0  0  0  0999 V3000
M  V30 BEGIN CTAB
M  V30 COUNTS 11 11 0 0 1
M  V30 BEGIN ATOM
M  V30 1 C 74.341500 55.241400 41.702500 0 CFG=1
M  V30 2 F 74.122600 55.813100 40.458100 0
M  V30 3 C 75.512700 55.829800 42.483400 0
M  V30 4 C 74.101200 56.181100 42.853200 0 CFG=1
M  V30 5 N 73.672000 57.518000 42.524900 0
M  V30 6 H 76.058400 55.258600 43.230300 0
M  V30 7 H 76.108300 56.586200 41.975900 0
M  V30 8 H 73.690100 55.685000 43.729100 0
M  V30 9 H 72.675800 57.533700 42.364100 0
M  V30 10 H 73.849700 58.137700 43.301000 0
M  V30 11 R 73.815300 53.799200 41.807700 0
M  V30 END ATOM
M  V30 BEGIN BOND
M  V30 1 1 2 1
M  V30 2 1 3 1
M  V30 3 1 4 1
M  V30 4 1 4 3
M  V30 5 1 5 4
M  V30 6 1 6 3
M  V30 7 1 7 3
M  V30 8 1 4 8 CFG=1
M  V30 9 1 9 5
M  V30 10 1 10 5
M  V30 11 1 1 11 CFG=1
M  V30 END BOND
M  V30 END CTAB
M  END
$$$$
R-group 544 (10092-1)
     RDKit          3D

  0  0  0  0  0  0  0  0  0  0999 V3000
M  V30 BEGIN CTAB
M  V30 COUNTS 17 17 0 0 1
M  V30 BEGIN ATOM
M  V30 1 C 73.858000 55.095500 42.130600 0 CFG=1
M  V30 2 C 75.312600 55.551900 42.194300 0
M  V30 3 C 75.261200 56.962300 41.643600 0 CFG=1
M  V30 4 O 76.471600 57.257900 40.977800 0
M  V30 5 C 74.009100 56.973000 40.747300 0 CFG=1
M  V30 6 C 74.211000 57.090000 39.235300 0
M  V30 7 O 73.432200 55.695300 40.918300 0
M  V30 8 H 73.303500 55.548900 42.953900 0
M  V30 9 H 75.724100 55.510800 43.202700 0
M  V30 10 H 75.925700 54.931000 41.545500 0
M  V30 11 H 75.112200 57.657800 42.469000 0
M  V30 12 H 73.306800 57.731500 41.095700 0
M  V30 13 H 74.611100 58.051900 38.924700 0
M  V30 14 H 74.872000 56.310400 38.868100 0
M  V30 15 H 73.257700 56.957500 38.724000 0
M  V30 16 H 76.437600 58.146700 40.660500 0
M  V30 17 R 73.596900 53.561800 42.090000 0
M  V30 END ATOM
M  V30 BEGIN BOND
M  V30 1 1 2 1
M  V30 2 1 3 2
M  V30 3 1 4 3
M  V30 4 1 5 3
M  V30 5 1 6 5
M  V30 6 1 7 1
M  V30 7 1 7 5
M  V30 8 1 1 8 CFG=1
M  V30 9 1 9 2
M  V30 10 1 10 2
M  V30 11 1 3 11 CFG=1
M  V30 12 1 5 12 CFG=1
M  V30 13 1 13 6
M  V30 14 1 14 6
M  V30 15 1 15 6
M  V30 16 1 16 4
M  V30 17 1 17 1
M  V30 END BOND
M  V30 END CTAB
M  END
$$$$
R-group 545 (10640-1)
     RDKit          3D

  0  0  0  0  0  0  0  0  0  0999 V3000
M  V30 BEGIN CTAB
M  V30 COUNTS 19 19 0 0 1
M  V30 BEGIN ATOM
M  V30 1 C 74.056400 55.393900 41.913100 0
M  V30 2 C 75.604800 55.553500 41.918600 0
M  V30 3 O 76.072300 56.858000 41.686300 0
M  V30 4 C 73.428300 56.369100 40.879700 0
M  V30 5 C 73.182100 57.714300 41.599100 0
M  V30 6 C 73.379200 57.475500 43.088400 0
M  V30 7 C 73.473400 55.965000 43.220400 0
M  V30 8 H 76.000400 55.258000 42.885600 0
M  V30 9 H 76.069200 54.934400 41.158100 0
M  V30 10 H 74.041000 56.487400 39.985400 0
M  V30 11 H 72.472200 56.009600 40.524700 0
M  V30 12 H 73.913400 58.458000 41.324700 0
M  V30 13 H 72.202000 58.130700 41.370800 0
M  V30 14 H 74.312000 57.939100 43.409900 0
M  V30 15 H 72.576500 57.894500 43.695600 0
M  V30 16 H 72.442800 55.631000 43.324700 0
M  V30 17 H 74.041800 55.653300 44.097500 0
M  V30 18 H 75.746300 57.148400 40.848600 0
M  V30 19 R 73.636000 53.863100 41.763700 0
M  V30 END ATOM
M  V30 BEGIN BOND
M  V30 1 1 2 1
M  V30 2 1 3 2
M  V30 3 1 4 1
M  V30 4 1 5 4
M  V30 5 1 6 5
M  V30 6 1 7 1
M  V30 7 1 7 6
M  V30 8 1 8 2
M  V30 9 1 9 2
M  V30 10 1 10 4
M  V30 11 1 11 4
M  V30 12 1 12 5
M  V30 13 1 13 5
M  V30 14 1 14 6
M  V30 15 1 15 6
M  V30 16 1 16 7
M  V30 17 1 17 7
M  V30 18 1 18 3
M  V30 19 1 19 1
M  V30 END BOND
M  V30 END CTAB
M  END
$$$$
R-group 546 (2336-1)
     RDKit          3D

  0  0  0  0  0  0  0  0  0  0999 V3000
M  V30 BEGIN CTAB
M  V30 COUNTS 15 14 0 0 1
M  V30 BEGIN ATOM
M  V30 1 C 73.571000 57.160900 40.060800 0
M  V30 2 O 73.328200 55.841300 40.525000 0
M  V30 3 C 74.046300 55.338500 41.663800 0
M  V30 4 C 75.550300 55.658000 41.539400 0
M  V30 5 C 73.534500 56.041800 42.935800 0
M  V30 6 H 72.878100 57.366000 39.247100 0
M  V30 7 H 73.410700 57.915900 40.829400 0
M  V30 8 H 74.576600 57.257600 39.652700 0
M  V30 9 H 76.062600 55.263400 42.406000 0
M  V30 10 H 76.017300 55.246400 40.646300 0
M  V30 11 H 75.748400 56.728700 41.545700 0
M  V30 12 H 74.065900 55.657800 43.805600 0
M  V30 13 H 73.699100 57.117500 42.913000 0
M  V30 14 H 72.473500 55.868100 43.109100 0
M  V30 15 R 73.717200 53.797100 41.756300 0
M  V30 END ATOM
M  V30 BEGIN BOND
M  V30 1 1 2 1
M  V30 2 1 3 2
M  V30 3 1 4 3
M  V30 4 1 5 3
M  V30 5 1 6 1
M  V30 6 1 7 1
M  V30 7 1 8 1
M  V30 8 1 9 4
M  V30 9 1 10 4
M  V30 10 1 11 4
M  V30 11 1 12 5
M  V30 12 1 13 5
M  V30 13 1 14 5
M  V30 14 1 15 3
M  V30 END BOND
M  V30 END CTAB
M  END
$$$$
R-group 547 (3971-1)
     RDKit          3D

  0  0  0  0  0  0  0  0  0  0999 V3000
M  V30 BEGIN CTAB
M  V30 COUNTS 15 14 0 0 1
M  V30 BEGIN ATOM
M  V30 1 N 73.275700 54.710500 42.124900 0
M  V30 2 S 74.580900 55.811400 42.014100 0
M  V30 3 O 75.282200 55.770800 43.303800 0
M  V30 4 O 75.284300 55.628300 40.743900 0
M  V30 5 N 73.672900 57.262600 41.874600 0
M  V30 6 C 72.961000 57.549900 40.620200 0
M  V30 7 C 73.075000 57.804300 43.083700 0
M  V30 8 H 72.653800 58.594800 40.579000 0
M  V30 9 H 73.611800 57.363400 39.764800 0
M  V30 10 H 72.075100 56.924500 40.518000 0
M  V30 11 H 72.466600 58.683600 42.876000 0
M  V30 12 H 72.481100 57.050200 43.600400 0
M  V30 13 H 73.895400 58.094300 43.724700 0
M  V30 14 H 72.873400 54.788700 43.065800 0
M  V30 15 R 73.451900 53.304500 41.814900 0
M  V30 END ATOM
M  V30 BEGIN BOND
M  V30 1 1 2 1
M  V30 2 2 3 2
M  V30 3 2 4 2
M  V30 4 1 5 2
M  V30 5 1 6 5
M  V30 6 1 7 5
M  V30 7 1 8 6
M  V30 8 1 9 6
M  V30 9 1 10 6
M  V30 10 1 11 7
M  V30 11 1 12 7
M  V30 12 1 13 7
M  V30 13 1 14 1
M  V30 14 1 15 1
M  V30 END BOND
M  V30 END CTAB
M  END
$$$$
R-group 548 (25957-3)
     RDKit          3D

  0  0  0  0  0  0  0  0  0  0999 V3000
M  V30 BEGIN CTAB
M  V30 COUNTS 15 14 0 0 1
M  V30 BEGIN ATOM
M  V30 1 C 73.953700 55.374400 42.016900 0 CFG=1
M  V30 2 C 75.410700 55.678300 42.405900 0
M  V30 3 C 73.445300 56.424500 40.958800 0 CFG=2
M  V30 4 C 74.369100 56.743400 39.765800 0
M  V30 5 O 73.272300 57.658200 41.630900 0
M  V30 6 H 73.386700 55.584700 42.926800 0
M  V30 7 H 76.076800 55.314700 41.630500 0
M  V30 8 H 75.588500 56.746600 42.527200 0
M  V30 9 H 75.684200 55.216600 43.352100 0
M  V30 10 H 72.480200 56.153500 40.524700 0
M  V30 11 H 74.418700 55.927000 39.050600 0
M  V30 12 H 73.982300 57.597000 39.208300 0
M  V30 13 H 75.384300 56.999300 40.071900 0
M  V30 14 H 72.670900 57.529000 42.347900 0
M  V30 15 R 73.651400 53.842400 41.762100 0
M  V30 END ATOM
M  V30 BEGIN BOND
M  V30 1 1 2 1
M  V30 2 1 3 1
M  V30 3 1 4 3
M  V30 4 1 5 3
M  V30 5 1 1 6 CFG=1
M  V30 6 1 7 2
M  V30 7 1 8 2
M  V30 8 1 9 2
M  V30 9 1 3 10 CFG=3
M  V30 10 1 11 4
M  V30 11 1 12 4
M  V30 12 1 13 4
M  V30 13 1 14 5
M  V30 14 1 15 1
M  V30 END BOND
M  V30 END CTAB
M  END
$$$$
R-group 549 (18304-1)
     RDKit          3D

  0  0  0  0  0  0  0  0  0  0999 V3000
M  V30 BEGIN CTAB
M  V30 COUNTS 22 22 0 0 1
M  V30 BEGIN ATOM
M  V30 1 C 76.467900 57.485500 40.602600 0
M  V30 2 O 76.001100 56.858400 41.782900 0
M  V30 3 C 75.540500 55.540900 41.601000 0
M  V30 4 C 74.003200 55.356100 41.776900 0
M  V30 5 C 73.273600 56.268900 40.757900 0
M  V30 6 C 73.055400 57.645000 41.425600 0
M  V30 7 C 73.323800 57.465700 42.921400 0
M  V30 8 C 73.508500 55.958400 43.107500 0
M  V30 9 H 76.873100 58.457900 40.861500 0
M  V30 10 H 77.253800 56.904200 40.128400 0
M  V30 11 H 75.671600 57.636400 39.876500 0
M  V30 12 H 76.069200 55.000100 42.364200 0
M  V30 13 H 75.904000 55.140100 40.660200 0
M  V30 14 H 73.804900 56.348900 39.810300 0
M  V30 15 H 72.308400 55.857000 40.506700 0
M  V30 16 H 73.672300 58.420200 41.005100 0
M  V30 17 H 72.072300 58.048900 41.238400 0
M  V30 18 H 74.220800 58.005900 43.221800 0
M  V30 19 H 72.489800 57.840700 43.524300 0
M  V30 20 H 72.505500 55.596500 43.322600 0
M  V30 21 H 74.135000 55.658000 43.948000 0
M  V30 22 R 73.598700 53.818600 41.726800 0
M  V30 END ATOM
M  V30 BEGIN BOND
M  V30 1 1 2 1
M  V30 2 1 3 2
M  V30 3 1 4 3
M  V30 4 1 5 4
M  V30 5 1 6 5
M  V30 6 1 7 6
M  V30 7 1 8 4
M  V30 8 1 8 7
M  V30 9 1 9 1
M  V30 10 1 10 1
M  V30 11 1 11 1
M  V30 12 1 12 3
M  V30 13 1 13 3
M  V30 14 1 14 5
M  V30 15 1 15 5
M  V30 16 1 16 6
M  V30 17 1 17 6
M  V30 18 1 18 7
M  V30 19 1 19 7
M  V30 20 1 20 8
M  V30 21 1 21 8
M  V30 22 1 22 4
M  V30 END BOND
M  V30 END CTAB
M  END
$$$$
R-group 550 (10774-2)
     RDKit          3D

  0  0  0  0  0  0  0  0  0  0999 V3000
M  V30 BEGIN CTAB
M  V30 COUNTS 24 24 0 0 1
M  V30 BEGIN ATOM
M  V30 1 C 73.546800 54.837900 41.626200 0 CFG=1
M  V30 2 C 73.059700 55.439700 42.928900 0
M  V30 3 C 73.167200 56.932300 43.135700 0
M  V30 4 C 74.557000 57.392000 42.778100 0
M  V30 5 C 74.972000 56.939100 41.349000 0
M  V30 6 C 76.413900 57.392500 41.050600 0
M  V30 7 C 74.019700 57.501600 40.267800 0
M  V30 8 C 74.949200 55.406000 41.310800 0
M  V30 9 H 72.833000 55.132400 40.866700 0
M  V30 10 H 72.051300 55.111400 43.177100 0
M  V30 11 H 73.754200 55.095700 43.685300 0
M  V30 12 H 72.473200 57.526200 42.577900 0
M  V30 13 H 72.903500 57.173000 44.160500 0
M  V30 14 H 75.285000 57.031200 43.502700 0
M  V30 15 H 74.470800 58.455800 42.924500 0
M  V30 16 H 76.476800 58.464400 40.922800 0
M  V30 17 H 77.096200 57.115900 41.851400 0
M  V30 18 H 76.790100 56.947700 40.130300 0
M  V30 19 H 73.664800 58.458000 40.604400 0
M  V30 20 H 74.505700 57.627600 39.302600 0
M  V30 21 H 73.107100 56.954800 40.081900 0
M  V30 22 H 75.671900 55.029700 42.036400 0
M  V30 23 H 75.312300 55.087000 40.341900 0
M  V30 24 R 73.443900 53.298900 41.693200 0
M  V30 END ATOM
M  V30 BEGIN BOND
M  V30 1 1 2 1
M  V30 2 1 3 2
M  V30 3 1 4 3
M  V30 4 1 5 4
M  V30 5 1 6 5
M  V30 6 1 7 5
M  V30 7 1 8 1
M  V30 8 1 8 5
M  V30 9 1 1 9 CFG=3
M  V30 10 1 10 2
M  V30 11 1 11 2
M  V30 12 1 12 3
M  V30 13 1 13 3
M  V30 14 1 14 4
M  V30 15 1 15 4
M  V30 16 1 16 6
M  V30 17 1 17 6
M  V30 18 1 18 6
M  V30 19 1 19 7
M  V30 20 1 20 7
M  V30 21 1 21 7
M  V30 22 1 22 8
M  V30 23 1 23 8
M  V30 24 1 24 1
M  V30 END BOND
M  V30 END CTAB
M  END
$$$$
R-group 551 (39328-3)
     RDKit          3D

  0  0  0  0  0  0  0  0  0  0999 V3000
M  V30 BEGIN CTAB
M  V30 COUNTS 25 26 0 0 1
M  V30 BEGIN ATOM
M  V30 1 C 74.211900 54.770000 41.672600 0 CFG=2
M  V30 2 C 74.328500 55.499000 43.045200 0 CFG=1
M  V30 3 C 75.343900 56.637800 42.922100 0
M  V30 4 C 74.506800 57.655700 42.173400 0
M  V30 5 C 73.231600 56.936700 41.809900 0 CFG=2
M  V30 6 C 72.994200 56.204000 43.130700 0
M  V30 7 C 73.459000 55.818200 40.756200 0
M  V30 8 C 74.334700 56.306500 39.570400 0
M  V30 9 C 72.091100 55.425000 40.124700 0
M  V30 10 H 75.229200 54.660400 41.298000 0
M  V30 11 H 74.546400 54.903700 43.921700 0
M  V30 12 H 75.681500 57.038400 43.874500 0
M  V30 13 H 76.239800 56.344700 42.370200 0
M  V30 14 H 75.047900 58.058000 41.324700 0
M  V30 15 H 74.189400 58.456700 42.843800 0
M  V30 16 H 72.472300 57.662200 41.534100 0
M  V30 17 H 72.899800 56.868300 43.991400 0
M  V30 18 H 72.164100 55.495900 43.169000 0
M  V30 19 H 73.954300 57.242700 39.157400 0
M  V30 20 H 75.375400 56.462800 39.849300 0
M  V30 21 H 74.341900 55.593800 38.746700 0
M  V30 22 H 71.436900 56.295800 40.112000 0
M  V30 23 H 72.177600 55.054500 39.102900 0
M  V30 24 H 71.546200 54.678600 40.701300 0
M  V30 25 R 73.659100 53.322700 41.818100 0
M  V30 END ATOM
M  V30 BEGIN BOND
M  V30 1 1 2 1
M  V30 2 1 3 2
M  V30 3 1 4 3
M  V30 4 1 5 4
M  V30 5 1 6 2
M  V30 6 1 6 5
M  V30 7 1 7 1
M  V30 8 1 7 5
M  V30 9 1 8 7
M  V30 10 1 9 7
M  V30 11 1 1 10 CFG=3
M  V30 12 1 2 11 CFG=1
M  V30 13 1 12 3
M  V30 14 1 13 3
M  V30 15 1 14 4
M  V30 16 1 15 4
M  V30 17 1 5 16 CFG=3
M  V30 18 1 17 6
M  V30 19 1 18 6
M  V30 20 1 19 8
M  V30 21 1 20 8
M  V30 22 1 21 8
M  V30 23 1 22 9
M  V30 24 1 23 9
M  V30 25 1 24 9
M  V30 26 1 25 1
M  V30 END BOND
M  V30 END CTAB
M  END
$$$$
R-group 552 (24810-2)
     RDKit          3D

  0  0  0  0  0  0  0  0  0  0999 V3000
M  V30 BEGIN CTAB
M  V30 COUNTS 28 28 0 0 1
M  V30 BEGIN ATOM
M  V30 1 N 73.191300 54.142000 42.124800 0
M  V30 2 C 74.168700 54.979500 41.786700 0
M  V30 3 O 75.229800 54.636800 41.274600 0
M  V30 4 C 73.898100 56.433000 42.038000 0 CFG=1
M  V30 5 C 75.050500 57.036700 42.878600 0
M  V30 6 C 76.382300 57.160300 42.125600 0
M  V30 7 C 76.290900 57.657900 40.679500 0
M  V30 8 C 75.007100 57.257800 39.888700 0
M  V30 9 C 73.663100 57.150000 40.684300 0
M  V30 10 C 72.667400 56.445700 39.714600 0
M  V30 11 C 72.986900 58.458300 41.081000 0
M  V30 12 H 72.996500 56.493300 42.650400 0
M  V30 13 H 74.754100 57.987500 43.324000 0
M  V30 14 H 75.258000 56.383000 43.724600 0
M  V30 15 H 77.027400 57.826400 42.689700 0
M  V30 16 H 76.872000 56.191500 42.127200 0
M  V30 17 H 76.472300 58.726200 40.709200 0
M  V30 18 H 77.163500 57.295600 40.134600 0
M  V30 19 H 75.217700 56.288600 39.441600 0
M  V30 20 H 74.872100 57.897200 39.010600 0
M  V30 21 H 72.560600 57.026900 38.798800 0
M  V30 22 H 73.003400 55.458300 39.399400 0
M  V30 23 H 71.667800 56.334700 40.124700 0
M  V30 24 H 72.701200 59.051100 40.228400 0
M  V30 25 H 72.072400 58.290700 41.643000 0
M  V30 26 H 73.613500 59.050100 41.732700 0
M  V30 27 H 72.395800 54.508700 42.630300 0
M  V30 28 R 73.270900 52.717200 41.989300 0
M  V30 END ATOM
M  V30 BEGIN BOND
M  V30 1 1 2 1
M  V30 2 2 3 2
M  V30 3 1 4 2
M  V30 4 1 5 4
M  V30 5 1 6 5
M  V30 6 1 7 6
M  V30 7 1 8 7
M  V30 8 1 9 4
M  V30 9 1 9 8
M  V30 10 1 10 9
M  V30 11 1 11 9
M  V30 12 1 4 12 CFG=1
M  V30 13 1 13 5
M  V30 14 1 14 5
M  V30 15 1 15 6
M  V30 16 1 16 6
M  V30 17 1 17 7
M  V30 18 1 18 7
M  V30 19 1 19 8
M  V30 20 1 20 8
M  V30 21 1 21 10
M  V30 22 1 22 10
M  V30 23 1 23 10
M  V30 24 1 24 11
M  V30 25 1 25 11
M  V30 26 1 26 11
M  V30 27 1 27 1
M  V30 28 1 28 1
M  V30 END BOND
M  V30 END CTAB
M  END
$$$$
R-group 553 (16483-1)
     RDKit          3D

  0  0  0  0  0  0  0  0  0  0999 V3000
M  V30 BEGIN CTAB
M  V30 COUNTS 11 11 0 0 1
M  V30 BEGIN ATOM
M  V30 1 N 72.986000 54.267100 42.124800 0
M  V30 2 C 73.958500 55.238300 41.902000 0
M  V30 3 C 74.762400 55.657500 42.980600 0
M  V30 4 C 75.672500 56.600700 42.631100 0
M  V30 5 S 75.671700 56.851100 40.924800 0
M  V30 6 C 74.257000 55.871200 40.730700 0
M  V30 7 H 72.660700 54.301200 43.090600 0
M  V30 8 H 74.630200 55.267600 43.979100 0
M  V30 9 H 76.390500 57.111200 43.259100 0
M  V30 10 H 73.795100 55.757800 39.762700 0
M  V30 11 R 73.289900 52.917600 41.721300 0
M  V30 END ATOM
M  V30 BEGIN BOND
M  V30 1 1 2 1
M  V30 2 1 3 2
M  V30 3 2 4 3
M  V30 4 1 5 4
M  V30 5 2 6 2
M  V30 6 1 6 5
M  V30 7 1 7 1
M  V30 8 1 8 3
M  V30 9 1 9 4
M  V30 10 1 10 6
M  V30 11 1 11 1
M  V30 END BOND
M  V30 END CTAB
M  END
$$$$
R-group 554 (6349-1)
     RDKit          3D

  0  0  0  0  0  0  0  0  0  0999 V3000
M  V30 BEGIN CTAB
M  V30 COUNTS 15 15 0 0 1
M  V30 BEGIN ATOM
M  V30 1 C 74.134400 54.710200 41.864600 0
M  V30 2 C 73.672000 55.678800 42.646000 0
M  V30 3 C 74.312000 56.855700 42.310000 0
M  V30 4 C 73.886700 58.125700 42.903800 0
M  V30 5 C 75.243800 56.499900 41.381700 0
M  V30 6 C 76.212400 57.249400 40.564800 0
M  V30 7 O 75.165200 55.171000 41.115000 0
M  V30 8 H 72.846300 55.570800 43.325000 0
M  V30 9 H 73.678800 58.857500 42.122600 0
M  V30 10 H 72.959900 57.990600 43.462200 0
M  V30 11 H 74.636700 58.457500 43.620300 0
M  V30 12 H 76.691700 58.048700 41.125600 0
M  V30 13 H 76.963800 56.582600 40.171400 0
M  V30 14 H 75.670800 57.658000 39.725400 0
M  V30 15 R 73.717900 53.307600 41.806200 0
M  V30 END ATOM
M  V30 BEGIN BOND
M  V30 1 2 2 1
M  V30 2 1 3 2
M  V30 3 1 4 3
M  V30 4 2 5 3
M  V30 5 1 6 5
M  V30 6 1 7 1
M  V30 7 1 7 5
M  V30 8 1 8 2
M  V30 9 1 9 4
M  V30 10 1 10 4
M  V30 11 1 11 4
M  V30 12 1 12 6
M  V30 13 1 13 6
M  V30 14 1 14 6
M  V30 15 1 15 1
M  V30 END BOND
M  V30 END CTAB
M  END
$$$$
R-group 555 (16250-1)
     RDKit          3D

  0  0  0  0  0  0  0  0  0  0999 V3000
M  V30 BEGIN CTAB
M  V30 COUNTS 9 9 0 0 1
M  V30 BEGIN ATOM
M  V30 1 C 74.624100 55.276500 41.627500 0 CFG=1
M  V30 2 C 73.965600 56.486300 40.989300 0
M  V30 3 C 74.333800 56.513300 42.447200 0 CFG=1
M  V30 4 F 73.272200 56.472400 43.324500 0
M  V30 5 H 75.666900 55.143500 41.340900 0
M  V30 6 H 74.569400 57.086000 40.310300 0
M  V30 7 H 72.909400 56.425300 40.741300 0
M  V30 8 H 75.141500 57.150000 42.803400 0
M  V30 9 R 73.879900 53.949900 41.818900 0
M  V30 END ATOM
M  V30 BEGIN BOND
M  V30 1 1 2 1
M  V30 2 1 3 1
M  V30 3 1 3 2
M  V30 4 1 4 3
M  V30 5 1 1 5 CFG=3
M  V30 6 1 6 2
M  V30 7 1 7 2
M  V30 8 1 3 8 CFG=3
M  V30 9 1 9 1
M  V30 END BOND
M  V30 END CTAB
M  END
$$$$
R-group 556 (10596-1)
     RDKit          3D

  0  0  0  0  0  0  0  0  0  0999 V3000
M  V30 BEGIN CTAB
M  V30 COUNTS 19 20 0 0 1
M  V30 BEGIN ATOM
M  V30 1 C 74.123700 55.070000 41.607400 0
M  V30 2 C 74.200800 55.768200 42.942900 0
M  V30 3 C 75.277300 55.450800 43.955100 0
M  V30 4 C 75.284700 56.782000 43.219700 0
M  V30 5 C 73.285200 55.886800 40.617200 0
M  V30 6 C 73.396300 57.388400 40.445800 0
M  V30 7 C 73.967600 56.481700 39.398200 0
M  V30 8 H 75.144800 55.048800 41.223200 0
M  V30 9 H 73.220300 56.012200 43.344500 0
M  V30 10 H 74.890600 55.258000 44.957200 0
M  V30 11 H 76.069300 54.770900 43.697700 0
M  V30 12 H 76.050900 56.924000 42.459200 0
M  V30 13 H 74.985800 57.694300 43.724000 0
M  V30 14 H 72.281500 55.505300 40.465100 0
M  V30 15 H 72.511500 57.941900 40.139800 0
M  V30 16 H 74.071200 57.919200 41.112900 0
M  V30 17 H 75.053200 56.452800 39.323200 0
M  V30 18 H 73.433700 56.429500 38.452700 0
M  V30 19 R 73.633800 53.593300 41.738200 0
M  V30 END ATOM
M  V30 BEGIN BOND
M  V30 1 1 2 1
M  V30 2 1 3 2
M  V30 3 1 4 2
M  V30 4 1 4 3
M  V30 5 1 5 1
M  V30 6 1 6 5
M  V30 7 1 7 5
M  V30 8 1 7 6
M  V30 9 1 8 1
M  V30 10 1 9 2
M  V30 11 1 10 3
M  V30 12 1 11 3
M  V30 13 1 12 4
M  V30 14 1 13 4
M  V30 15 1 14 5
M  V30 16 1 15 6
M  V30 17 1 16 6
M  V30 18 1 17 7
M  V30 19 1 18 7
M  V30 20 1 19 1
M  V30 END BOND
M  V30 END CTAB
M  END
$$$$
R-group 557 (802-1)
     RDKit          3D

  0  0  0  0  0  0  0  0  0  0999 V3000
M  V30 BEGIN CTAB
M  V30 COUNTS 11 11 0 0 1
M  V30 BEGIN ATOM
M  V30 1 C 73.740400 54.562600 41.726600 0
M  V30 2 C 74.269400 55.319900 42.793900 0
M  V30 3 N 74.407300 56.644300 42.762600 0
M  V30 4 C 74.072400 57.258600 41.634400 0
M  V30 5 C 73.668100 56.604700 40.466600 0
M  V30 6 F 73.418200 57.258600 39.325600 0
M  V30 7 C 73.459000 55.236800 40.522200 0
M  V30 8 H 74.502800 54.900900 43.756700 0
M  V30 9 H 74.142300 58.333600 41.713000 0
M  V30 10 H 73.061900 54.759800 39.641400 0
M  V30 11 R 73.490200 53.078000 41.877800 0
M  V30 END ATOM
M  V30 BEGIN BOND
M  V30 1 2 2 1
M  V30 2 1 3 2
M  V30 3 2 4 3
M  V30 4 1 5 4
M  V30 5 1 6 5
M  V30 6 1 7 1
M  V30 7 2 7 5
M  V30 8 1 8 2
M  V30 9 1 9 4
M  V30 10 1 10 7
M  V30 11 1 11 1
M  V30 END BOND
M  V30 END CTAB
M  END
$$$$
R-group 558 (5020-2)
     RDKit          3D

  0  0  0  0  0  0  0  0  0  0999 V3000
M  V30 BEGIN CTAB
M  V30 COUNTS 20 19 0 0 1
M  V30 BEGIN ATOM
M  V30 1 C 76.752900 57.531100 40.682800 0
M  V30 2 C 75.318100 57.069600 40.860500 0
M  V30 3 C 75.227500 55.789500 41.698200 0
M  V30 4 C 73.767100 55.347800 41.911300 0 CFG=2
M  V30 5 C 73.177600 55.974600 43.194400 0
M  V30 6 C 73.035900 57.502000 43.249600 0
M  V30 7 H 76.818100 58.454200 40.111300 0
M  V30 8 H 77.255800 57.657800 41.640800 0
M  V30 9 H 77.272200 56.767300 40.124800 0
M  V30 10 H 74.872200 56.905700 39.879200 0
M  V30 11 H 74.744100 57.862100 41.324800 0
M  V30 12 H 75.724300 55.927900 42.659600 0
M  V30 13 H 75.799500 55.017600 41.193800 0
M  V30 14 H 73.186600 55.788900 41.101100 0
M  V30 15 H 72.172700 55.576000 43.324600 0
M  V30 16 H 73.775900 55.658000 44.046500 0
M  V30 17 H 72.473500 57.779700 44.139400 0
M  V30 18 H 74.003200 57.997600 43.325400 0
M  V30 19 H 72.496900 57.896700 42.386100 0
M  V30 20 R 73.525200 53.796200 41.807000 0
M  V30 END ATOM
M  V30 BEGIN BOND
M  V30 1 1 2 1
M  V30 2 1 3 2
M  V30 3 1 4 3
M  V30 4 1 5 4
M  V30 5 1 6 5
M  V30 6 1 7 1
M  V30 7 1 8 1
M  V30 8 1 9 1
M  V30 9 1 10 2
M  V30 10 1 11 2
M  V30 11 1 12 3
M  V30 12 1 13 3
M  V30 13 1 4 14 CFG=3
M  V30 14 1 15 5
M  V30 15 1 16 5
M  V30 16 1 17 6
M  V30 17 1 18 6
M  V30 18 1 19 6
M  V30 19 1 20 4
M  V30 END BOND
M  V30 END CTAB
M  END
$$$$
R-group 559 (31005-3)
     RDKit          3D

  0  0  0  0  0  0  0  0  0  0999 V3000
M  V30 BEGIN CTAB
M  V30 COUNTS 21 21 0 0 1
M  V30 BEGIN ATOM
M  V30 1 C 74.049000 55.271300 41.852900 0 CFG=2
M  V30 2 C 73.573800 55.868300 43.182900 0
M  V30 3 C 73.756800 57.368000 43.074200 0
M  V30 4 C 73.707600 57.667900 41.581800 0 CFG=2
M  V30 5 C 72.664500 58.724700 41.227300 0
M  V30 6 C 73.566700 56.337400 40.817900 0 CFG=1
M  V30 7 C 74.378800 56.430900 39.512500 0
M  V30 8 H 75.140700 55.302700 41.847200 0
M  V30 9 H 72.510900 55.665400 43.323200 0
M  V30 10 H 74.088700 55.463600 44.047200 0
M  V30 11 H 73.002000 57.904700 43.651400 0
M  V30 12 H 74.733000 57.659300 43.460500 0
M  V30 13 H 74.690100 58.057600 41.332900 0
M  V30 14 H 71.672600 58.458100 41.558800 0
M  V30 15 H 72.872400 59.658600 41.732500 0
M  V30 16 H 72.666100 58.914800 40.153900 0
M  V30 17 H 72.525200 56.182300 40.524700 0
M  V30 18 H 75.449100 56.394500 39.722600 0
M  V30 19 H 74.120900 55.648600 38.803200 0
M  V30 20 H 74.177400 57.368800 38.995200 0
M  V30 21 R 73.607800 53.776000 41.724900 0
M  V30 END ATOM
M  V30 BEGIN BOND
M  V30 1 1 2 1
M  V30 2 1 3 2
M  V30 3 1 4 3
M  V30 4 1 5 4
M  V30 5 1 6 1
M  V30 6 1 6 4
M  V30 7 1 7 6
M  V30 8 1 1 8 CFG=1
M  V30 9 1 9 2
M  V30 10 1 10 2
M  V30 11 1 11 3
M  V30 12 1 12 3
M  V30 13 1 4 13 CFG=3
M  V30 14 1 14 5
M  V30 15 1 15 5
M  V30 16 1 16 5
M  V30 17 1 6 17 CFG=3
M  V30 18 1 18 7
M  V30 19 1 19 7
M  V30 20 1 20 7
M  V30 21 1 21 1
M  V30 END BOND
M  V30 END CTAB
M  END
$$$$
R-group 560 (3549-1)
     RDKit          3D

  0  0  0  0  0  0  0  0  0  0999 V3000
M  V30 BEGIN CTAB
M  V30 COUNTS 14 14 0 0 1
M  V30 BEGIN ATOM
M  V30 1 C 73.753600 54.587100 41.725100 0
M  V30 2 O 73.272300 55.127400 40.728700 0
M  V30 3 N 74.563700 55.191100 42.614700 0
M  V30 4 C 74.951400 56.587700 42.680500 0
M  V30 5 C 75.065600 57.243400 41.316800 0
M  V30 6 O 73.671800 57.657700 41.411800 0
M  V30 7 C 73.729600 57.474000 42.846600 0
M  V30 8 H 75.771000 56.818300 43.363000 0
M  V30 9 H 75.784600 58.057700 41.323700 0
M  V30 10 H 75.281000 56.570400 40.483700 0
M  V30 11 H 72.860200 56.967000 43.265900 0
M  V30 12 H 73.942900 58.398200 43.374100 0
M  V30 13 H 74.898300 54.616200 43.370700 0
M  V30 14 R 73.491200 53.110700 41.957800 0
M  V30 END ATOM
M  V30 BEGIN BOND
M  V30 1 2 2 1
M  V30 2 1 3 1
M  V30 3 1 4 3
M  V30 4 1 5 4
M  V30 5 1 6 5
M  V30 6 1 7 4
M  V30 7 1 7 6
M  V30 8 1 8 4
M  V30 9 1 9 5
M  V30 10 1 10 5
M  V30 11 1 11 7
M  V30 12 1 12 7
M  V30 13 1 13 3
M  V30 14 1 14 1
M  V30 END BOND
M  V30 END CTAB
M  END
$$$$
R-group 561 (7088-2)
     RDKit          3D

  0  0  0  0  0  0  0  0  0  0999 V3000
M  V30 BEGIN CTAB
M  V30 COUNTS 16 16 0 0 1
M  V30 BEGIN ATOM
M  V30 1 C 73.021900 58.530300 41.686700 0
M  V30 2 O 73.876100 57.658000 42.406500 0
M  V30 3 C 74.605900 56.825500 41.531200 0 CFG=1
M  V30 4 C 75.147400 55.606800 42.272000 0
M  V30 5 C 73.778400 54.946400 42.021200 0 CFG=1
M  V30 6 C 73.688100 55.861500 40.779900 0
M  V30 7 H 72.872200 59.512000 42.124700 0
M  V30 8 H 73.272200 58.648100 40.633800 0
M  V30 9 H 72.072100 58.058000 41.690100 0
M  V30 10 H 75.343700 57.344100 40.918000 0
M  V30 11 H 75.396900 55.777000 43.320000 0
M  V30 12 H 75.967100 55.136000 41.728500 0
M  V30 13 H 73.088000 55.316800 42.784300 0
M  V30 14 H 74.179000 55.503400 39.879300 0
M  V30 15 H 72.689400 56.211600 40.524900 0
M  V30 16 R 73.610900 53.432300 41.914400 0
M  V30 END ATOM
M  V30 BEGIN BOND
M  V30 1 1 2 1
M  V30 2 1 3 2
M  V30 3 1 4 3
M  V30 4 1 5 4
M  V30 5 1 6 3
M  V30 6 1 6 5
M  V30 7 1 7 1
M  V30 8 1 8 1
M  V30 9 1 9 1
M  V30 10 1 3 10 CFG=3
M  V30 11 1 11 4
M  V30 12 1 12 4
M  V30 13 1 5 13 CFG=1
M  V30 14 1 14 6
M  V30 15 1 15 6
M  V30 16 1 16 5
M  V30 END BOND
M  V30 END CTAB
M  END
$$$$
R-group 562 (14477-1)
     RDKit          3D

  0  0  0  0  0  0  0  0  0  0999 V3000
M  V30 BEGIN CTAB
M  V30 COUNTS 19 19 0 0 1
M  V30 BEGIN ATOM
M  V30 1 C 72.909500 54.353500 41.999900 0
M  V30 2 C 74.074400 55.316300 42.091300 0
M  V30 3 C 74.768400 55.489200 43.232800 0
M  V30 4 C 75.944700 56.417000 43.421400 0
M  V30 5 C 76.437400 56.886200 42.047000 0
M  V30 6 C 75.304200 57.257900 41.099500 0
M  V30 7 C 74.428400 56.050600 40.813400 0
M  V30 8 H 72.211500 54.710800 41.247300 0
M  V30 9 H 72.347800 54.344400 42.924200 0
M  V30 10 H 74.472100 54.970200 44.130500 0
M  V30 11 H 75.672300 57.232800 44.107500 0
M  V30 12 H 76.723000 55.855800 43.939700 0
M  V30 13 H 77.197100 57.658300 42.123300 0
M  V30 14 H 76.872800 56.032200 41.555900 0
M  V30 15 H 75.723900 57.625900 40.163400 0
M  V30 16 H 74.685500 58.043600 41.539000 0
M  V30 17 H 74.977300 55.378800 40.157400 0
M  V30 18 H 73.530600 56.367100 40.282900 0
M  V30 19 R 73.310500 52.932500 41.607400 0
M  V30 END ATOM
M  V30 BEGIN BOND
M  V30 1 1 2 1
M  V30 2 2 3 2
M  V30 3 1 4 3
M  V30 4 1 5 4
M  V30 5 1 6 5
M  V30 6 1 7 2
M  V30 7 1 7 6
M  V30 8 1 8 1
M  V30 9 1 9 1
M  V30 10 1 10 3
M  V30 11 1 11 4
M  V30 12 1 12 4
M  V30 13 1 13 5
M  V30 14 1 14 5
M  V30 15 1 15 6
M  V30 16 1 16 6
M  V30 17 1 17 7
M  V30 18 1 18 7
M  V30 19 1 19 1
M  V30 END BOND
M  V30 END CTAB
M  END
$$$$
R-group 563 (4702-1)
     RDKit          3D

  0  0  0  0  0  0  0  0  0  0999 V3000
M  V30 BEGIN CTAB
M  V30 COUNTS 15 14 0 0 1
M  V30 BEGIN ATOM
M  V30 1 C 73.816200 54.857600 42.169000 0
M  V30 2 C 74.773900 55.602600 41.230300 0
M  V30 3 C 74.992900 57.030200 41.708300 0 CFG=1
M  V30 4 C 73.672200 57.811300 41.894700 0
M  V30 5 O 75.672200 56.858000 42.924700 0
M  V30 6 H 72.872200 55.332800 42.040500 0
M  V30 7 H 74.063400 55.027200 43.216800 0
M  V30 8 H 75.731700 55.086500 41.179300 0
M  V30 9 H 74.366900 55.633300 40.219600 0
M  V30 10 H 75.648300 57.553900 41.011000 0
M  V30 11 H 73.070500 57.774300 40.986200 0
M  V30 12 H 73.068800 57.414900 42.711300 0
M  V30 13 H 73.821900 58.858000 42.124700 0
M  V30 14 H 75.928800 57.703500 43.266900 0
M  V30 15 R 73.616600 53.368300 41.922800 0
M  V30 END ATOM
M  V30 BEGIN BOND
M  V30 1 1 2 1
M  V30 2 1 3 2
M  V30 3 1 4 3
M  V30 4 1 5 3
M  V30 5 1 6 1
M  V30 6 1 7 1
M  V30 7 1 8 2
M  V30 8 1 9 2
M  V30 9 1 3 10 CFG=3
M  V30 10 1 11 4
M  V30 11 1 12 4
M  V30 12 1 13 4
M  V30 13 1 14 5
M  V30 14 1 15 1
M  V30 END BOND
M  V30 END CTAB
M  END
$$$$
R-group 564 (2363-1)
     RDKit          3D

  0  0  0  0  0  0  0  0  0  0999 V3000
M  V30 BEGIN CTAB
M  V30 COUNTS 12 12 0 0 1
M  V30 BEGIN ATOM
M  V30 1 C 74.230800 54.945000 41.719900 0
M  V30 2 C 75.272100 55.549900 40.957900 0
M  V30 3 C 75.291300 56.840000 41.387500 0
M  V30 4 N 74.292400 56.940700 42.321900 0
M  V30 5 C 73.843400 58.058000 43.084500 0
M  V30 6 N 73.672300 55.792900 42.524700 0
M  V30 7 H 75.952600 55.116200 40.244200 0
M  V30 8 H 75.925100 57.668400 41.112600 0
M  V30 9 H 74.663300 58.422800 43.706100 0
M  V30 10 H 73.500500 58.826500 42.389600 0
M  V30 11 H 73.008500 57.782700 43.731200 0
M  V30 12 R 73.720800 53.544900 41.795200 0
M  V30 END ATOM
M  V30 BEGIN BOND
M  V30 1 1 2 1
M  V30 2 2 3 2
M  V30 3 1 4 3
M  V30 4 1 5 4
M  V30 5 2 6 1
M  V30 6 1 6 4
M  V30 7 1 7 2
M  V30 8 1 8 3
M  V30 9 1 9 5
M  V30 10 1 10 5
M  V30 11 1 11 5
M  V30 12 1 12 1
M  V30 END BOND
M  V30 END CTAB
M  END
$$$$
R-group 565 (4881-1)
     RDKit          3D

  0  0  0  0  0  0  0  0  0  0999 V3000
M  V30 BEGIN CTAB
M  V30 COUNTS 13 13 0 0 1
M  V30 BEGIN ATOM
M  V30 1 C 72.752200 54.240600 41.942500 0
M  V30 2 C 73.859500 55.257300 41.818100 0
M  V30 3 C 74.196200 55.872100 40.605400 0
M  V30 4 N 75.273200 56.662400 40.521800 0
M  V30 5 C 75.981600 56.859400 41.622600 0
M  V30 6 N 75.674000 56.447200 42.841700 0
M  V30 7 C 74.630200 55.616600 42.925800 0
M  V30 8 H 71.946100 54.457700 41.240300 0
M  V30 9 H 72.298400 54.307600 42.924900 0
M  V30 10 H 73.640200 55.705400 39.693900 0
M  V30 11 H 76.841600 57.506500 41.537000 0
M  V30 12 H 74.428800 55.219000 43.909600 0
M  V30 13 R 73.268400 52.824100 41.677100 0
M  V30 END ATOM
M  V30 BEGIN BOND
M  V30 1 1 2 1
M  V30 2 2 3 2
M  V30 3 1 4 3
M  V30 4 2 5 4
M  V30 5 1 6 5
M  V30 6 1 7 2
M  V30 7 2 7 6
M  V30 8 1 8 1
M  V30 9 1 9 1
M  V30 10 1 10 3
M  V30 11 1 11 5
M  V30 12 1 12 7
M  V30 13 1 13 1
M  V30 END BOND
M  V30 END CTAB
M  END
$$$$
R-group 566 (9968-1)
     RDKit          3D

  0  0  0  0  0  0  0  0  0  0999 V3000
M  V30 BEGIN CTAB
M  V30 COUNTS 12 12 0 0 1
M  V30 BEGIN ATOM
M  V30 1 C 74.096100 54.774100 42.090500 0
M  V30 2 O 73.620100 55.593900 41.122400 0
M  V30 3 C 73.965100 56.861400 41.450400 0
M  V30 4 C 73.261100 57.916700 40.669000 0
M  V30 5 C 74.811500 56.856200 42.523300 0
M  V30 6 C 74.872600 55.512200 42.925300 0
M  V30 7 F 75.539700 55.075300 44.021800 0
M  V30 8 H 73.269100 58.858000 41.215600 0
M  V30 9 H 73.679800 58.050300 39.673200 0
M  V30 10 H 72.215300 57.644700 40.524700 0
M  V30 11 H 75.284100 57.659400 43.041800 0
M  V30 12 R 73.657200 53.354900 42.013400 0
M  V30 END ATOM
M  V30 BEGIN BOND
M  V30 1 1 2 1
M  V30 2 1 3 2
M  V30 3 1 4 3
M  V30 4 2 5 3
M  V30 5 2 6 1
M  V30 6 1 6 5
M  V30 7 1 7 6
M  V30 8 1 8 4
M  V30 9 1 9 4
M  V30 10 1 10 4
M  V30 11 1 11 5
M  V30 12 1 12 1
M  V30 END BOND
M  V30 END CTAB
M  END
$$$$
R-group 567 (43483-1)
     RDKit          3D

  0  0  0  0  0  0  0  0  0  0999 V3000
M  V30 BEGIN CTAB
M  V30 COUNTS 20 20 0 0 1
M  V30 BEGIN ATOM
M  V30 1 C 73.021000 54.337500 41.801000 0
M  V30 2 N 73.988800 55.101800 40.991200 0
M  V30 3 C 73.519300 55.501200 39.647900 0
M  V30 4 C 72.497900 56.637700 39.736400 0
M  V30 5 C 73.083900 57.832500 40.496400 0
M  V30 6 C 73.635000 57.561500 41.917600 0
M  V30 7 S 74.930500 56.274400 41.820700 0
M  V30 8 O 75.271500 55.743300 43.147800 0
M  V30 9 O 75.992100 56.750800 40.924600 0
M  V30 10 H 72.007200 54.458100 41.425500 0
M  V30 11 H 73.005800 54.698800 42.829700 0
M  V30 12 H 74.380600 55.816800 39.056200 0
M  V30 13 H 73.073300 54.670800 39.109300 0
M  V30 14 H 72.272100 56.951300 38.718000 0
M  V30 15 H 71.543400 56.299300 40.124300 0
M  V30 16 H 72.399000 58.679100 40.525100 0
M  V30 17 H 73.910700 58.058000 39.834400 0
M  V30 18 H 72.867100 57.211700 42.602600 0
M  V30 19 H 74.071700 58.458100 42.348700 0
M  V30 20 R 73.307700 52.842900 41.762400 0
M  V30 END ATOM
M  V30 BEGIN BOND
M  V30 1 1 2 1
M  V30 2 1 3 2
M  V30 3 1 4 3
M  V30 4 1 5 4
M  V30 5 1 6 5
M  V30 6 1 7 2
M  V30 7 1 7 6
M  V30 8 2 8 7
M  V30 9 2 9 7
M  V30 10 1 10 1
M  V30 11 1 11 1
M  V30 12 1 12 3
M  V30 13 1 13 3
M  V30 14 1 14 4
M  V30 15 1 15 4
M  V30 16 1 16 5
M  V30 17 1 17 5
M  V30 18 1 18 6
M  V30 19 1 19 6
M  V30 20 1 20 1
M  V30 END BOND
M  V30 END CTAB
M  END
$$$$
R-group 568 (12877-2)
     RDKit          3D

  0  0  0  0  0  0  0  0  0  0999 V3000
M  V30 BEGIN CTAB
M  V30 COUNTS 23 22 0 0 1
M  V30 BEGIN ATOM
M  V30 1 C 73.396800 54.915500 41.594100 0 CFG=1
M  V30 2 C 72.874000 55.381000 42.924700 0
M  V30 3 C 74.716300 55.601200 41.203300 0
M  V30 4 C 74.908200 57.085300 41.592600 0
M  V30 5 C 75.257400 57.259400 43.104400 0
M  V30 6 C 73.672500 57.921500 41.164300 0
M  V30 7 C 76.125500 57.535200 40.779500 0
M  V30 8 H 72.650800 55.230600 40.864300 0
M  V30 9 H 73.672000 55.258600 43.663500 0
M  V30 10 H 72.583700 56.417900 43.017400 0
M  V30 11 H 71.970700 54.831500 43.196600 0
M  V30 12 H 74.782800 55.557500 40.117800 0
M  V30 13 H 75.562800 55.026800 41.581400 0
M  V30 14 H 75.991200 58.043900 43.323700 0
M  V30 15 H 75.670700 56.345900 43.535200 0
M  V30 16 H 74.381500 57.558400 43.685100 0
M  V30 17 H 73.672100 58.073600 40.084400 0
M  V30 18 H 72.697300 57.487100 41.334500 0
M  V30 19 H 73.667800 58.857900 41.714100 0
M  V30 20 H 75.886900 57.657800 39.725000 0
M  V30 21 H 76.570300 58.456200 41.136100 0
M  V30 22 H 76.872800 56.758100 40.826800 0
M  V30 23 R 73.438400 53.364700 41.581200 0
M  V30 END ATOM
M  V30 BEGIN BOND
M  V30 1 1 2 1
M  V30 2 1 3 1
M  V30 3 1 4 3
M  V30 4 1 5 4
M  V30 5 1 6 4
M  V30 6 1 7 4
M  V30 7 1 1 8 CFG=3
M  V30 8 1 9 2
M  V30 9 1 10 2
M  V30 10 1 11 2
M  V30 11 1 12 3
M  V30 12 1 13 3
M  V30 13 1 14 5
M  V30 14 1 15 5
M  V30 15 1 16 5
M  V30 16 1 17 6
M  V30 17 1 18 6
M  V30 18 1 19 6
M  V30 19 1 20 7
M  V30 20 1 21 7
M  V30 21 1 22 7
M  V30 22 1 23 1
M  V30 END BOND
M  V30 END CTAB
M  END
$$$$
R-group 569 (21641-1)
     RDKit          3D

  0  0  0  0  0  0  0  0  0  0999 V3000
M  V30 BEGIN CTAB
M  V30 COUNTS 15 15 0 0 1
M  V30 BEGIN ATOM
M  V30 1 N 73.438900 54.476000 42.124700 0
M  V30 2 C 74.332500 55.456300 41.968500 0
M  V30 3 O 75.267600 55.460700 41.173600 0
M  V30 4 N 74.095500 56.437700 42.835400 0
M  V30 5 C 72.837400 56.793400 43.474600 0
M  V30 6 C 72.861600 57.999200 42.536800 0
M  V30 7 C 74.366700 57.833400 42.642800 0
M  V30 8 H 72.057800 56.057700 43.343800 0
M  V30 9 H 72.871700 57.052500 44.524500 0
M  V30 10 H 72.468500 58.934100 42.924300 0
M  V30 11 H 72.476500 57.790700 41.536400 0
M  V30 12 H 74.783100 58.342100 43.523900 0
M  V30 13 H 74.871800 58.057900 41.708400 0
M  V30 14 H 72.744400 54.639400 42.839600 0
M  V30 15 R 73.513000 53.129200 41.665700 0
M  V30 END ATOM
M  V30 BEGIN BOND
M  V30 1 1 2 1
M  V30 2 2 3 2
M  V30 3 1 4 2
M  V30 4 1 5 4
M  V30 5 1 6 5
M  V30 6 1 7 4
M  V30 7 1 7 6
M  V30 8 1 8 5
M  V30 9 1 9 5
M  V30 10 1 10 6
M  V30 11 1 11 6
M  V30 12 1 12 7
M  V30 13 1 13 7
M  V30 14 1 14 1
M  V30 15 1 15 1
M  V30 END BOND
M  V30 END CTAB
M  END
$$$$
R-group 570 (6981-1)
     RDKit          3D

  0  0  0  0  0  0  0  0  0  0999 V3000
M  V30 BEGIN CTAB
M  V30 COUNTS 13 12 0 0 1
M  V30 BEGIN ATOM
M  V30 1 C 73.722300 54.811700 41.507600 0
M  V30 2 O 73.581700 55.350600 40.409300 0
M  V30 3 N 74.072500 55.492700 42.593200 0
M  V30 4 C 74.482700 56.867300 42.561000 0 CFG=2
M  V30 5 C 73.282700 57.815900 42.377500 0
M  V30 6 C 75.589200 57.072600 41.634700 0
M  V30 7 N 76.472100 57.257800 40.924900 0
M  V30 8 H 74.943300 57.102400 43.517500 0
M  V30 9 H 73.577100 58.854700 42.464100 0
M  V30 10 H 72.805100 57.684800 41.407000 0
M  V30 11 H 72.532500 57.643100 43.152100 0
M  V30 12 H 74.030800 55.033000 43.493500 0
M  V30 13 R 73.475400 53.321800 41.727800 0
M  V30 END ATOM
M  V30 BEGIN BOND
M  V30 1 2 2 1
M  V30 2 1 3 1
M  V30 3 1 4 3
M  V30 4 1 5 4
M  V30 5 1 6 4
M  V30 6 3 7 6
M  V30 7 1 4 8 CFG=1
M  V30 8 1 9 5
M  V30 9 1 10 5
M  V30 10 1 11 5
M  V30 11 1 12 3
M  V30 12 1 13 1
M  V30 END BOND
M  V30 END CTAB
M  END
$$$$
R-group 571 (2445-1)
     RDKit          3D

  0  0  0  0  0  0  0  0  0  0999 V3000
M  V30 BEGIN CTAB
M  V30 COUNTS 19 19 0 0 1
M  V30 BEGIN ATOM
M  V30 1 C 74.002500 54.935900 41.881800 0 CFG=2
M  V30 2 C 73.574800 55.742500 43.128600 0
M  V30 3 C 73.929800 57.227200 43.056200 0
M  V30 4 C 73.564500 57.837900 41.713700 0
M  V30 5 C 74.154900 57.048000 40.538700 0 CFG=1
M  V30 6 O 75.563500 56.858500 40.615000 0
M  V30 7 C 73.552100 55.665600 40.581800 0
M  V30 8 H 75.092200 54.927300 41.890100 0
M  V30 9 H 72.500200 55.658100 43.291400 0
M  V30 10 H 74.072400 55.337300 44.008700 0
M  V30 11 H 74.994100 57.365300 43.254100 0
M  V30 12 H 73.384700 57.766100 43.826200 0
M  V30 13 H 73.887000 58.857900 41.724700 0
M  V30 14 H 72.478800 57.888300 41.612000 0
M  V30 15 H 73.910600 57.540400 39.595600 0
M  V30 16 H 73.849500 55.183700 39.658600 0
M  V30 17 H 72.472200 55.727300 40.524700 0
M  V30 18 H 75.869900 56.450200 39.818100 0
M  V30 19 R 73.609000 53.446400 41.967900 0
M  V30 END ATOM
M  V30 BEGIN BOND
M  V30 1 1 2 1
M  V30 2 1 3 2
M  V30 3 1 4 3
M  V30 4 1 5 4
M  V30 5 1 6 5
M  V30 6 1 7 1
M  V30 7 1 7 5
M  V30 8 1 1 8 CFG=3
M  V30 9 1 9 2
M  V30 10 1 10 2
M  V30 11 1 11 3
M  V30 12 1 12 3
M  V30 13 1 13 4
M  V30 14 1 14 4
M  V30 15 1 5 15 CFG=3
M  V30 16 1 16 7
M  V30 17 1 17 7
M  V30 18 1 18 6
M  V30 19 1 19 1
M  V30 END BOND
M  V30 END CTAB
M  END
$$$$
R-group 572 (8040-1)
     RDKit          3D

  0  0  0  0  0  0  0  0  0  0999 V3000
M  V30 BEGIN CTAB
M  V30 COUNTS 18 18 0 0 1
M  V30 BEGIN ATOM
M  V30 1 C 73.476000 54.542300 42.414600 0
M  V30 2 C 73.672400 55.346000 41.173400 0
M  V30 3 C 74.726600 56.232800 40.855300 0
M  V30 4 C 75.966700 56.558100 41.634900 0
M  V30 5 N 74.480600 56.857200 39.726100 0
M  V30 6 N 73.305100 56.457400 39.324900 0
M  V30 7 C 72.805900 55.494000 40.122100 0
M  V30 8 C 71.412300 54.999700 39.854500 0
M  V30 9 H 72.508500 54.788100 42.856600 0
M  V30 10 H 74.193600 54.845500 43.177800 0
M  V30 11 H 75.749400 57.251000 42.449400 0
M  V30 12 H 76.398200 55.663400 42.072300 0
M  V30 13 H 76.728600 57.018100 41.006600 0
M  V30 14 H 71.007600 54.456300 40.711500 0
M  V30 15 H 70.740100 55.836100 39.668800 0
M  V30 16 H 71.381300 54.350900 38.982100 0
M  V30 17 H 72.880400 56.842600 38.493200 0
M  V30 18 R 73.522800 53.022800 42.176800 0
M  V30 END ATOM
M  V30 BEGIN BOND
M  V30 1 1 2 1
M  V30 2 1 3 2
M  V30 3 1 4 3
M  V30 4 2 5 3
M  V30 5 1 6 5
M  V30 6 2 7 2
M  V30 7 1 7 6
M  V30 8 1 8 7
M  V30 9 1 9 1
M  V30 10 1 10 1
M  V30 11 1 11 4
M  V30 12 1 12 4
M  V30 13 1 13 4
M  V30 14 1 14 8
M  V30 15 1 15 8
M  V30 16 1 16 8
M  V30 17 1 17 6
M  V30 18 1 18 1
M  V30 END BOND
M  V30 END CTAB
M  END
$$$$
R-group 573 (43411-4)
     RDKit          3D

  0  0  0  0  0  0  0  0  0  0999 V3000
M  V30 BEGIN CTAB
M  V30 COUNTS 17 18 0 0 1
M  V30 BEGIN ATOM
M  V30 1 C 73.590000 54.912100 41.472000 0 CFG=2
M  V30 2 C 75.001400 55.390700 41.103000 0
M  V30 3 C 75.408800 56.148700 42.360000 0 CFG=1
M  V30 4 C 74.729500 57.503000 42.443200 0
M  V30 5 C 73.270800 57.170000 42.635500 0
M  V30 6 C 73.344000 55.654700 42.778000 0 CFG=2
M  V30 7 O 74.639500 55.490500 43.324700 0
M  V30 8 H 72.870900 55.267200 40.731400 0
M  V30 9 H 75.672400 54.564300 40.919500 0
M  V30 10 H 75.007800 56.021900 40.217500 0
M  V30 11 H 76.475600 56.151800 42.561300 0
M  V30 12 H 75.095000 58.028400 43.324900 0
M  V30 13 H 74.886500 58.054400 41.524600 0
M  V30 14 H 72.655800 57.489100 41.799800 0
M  V30 15 H 72.887700 57.629100 43.546100 0
M  V30 16 H 72.493500 55.261400 43.323300 0
M  V30 17 R 73.432100 53.380200 41.662700 0
M  V30 END ATOM
M  V30 BEGIN BOND
M  V30 1 1 2 1
M  V30 2 1 3 2
M  V30 3 1 4 3
M  V30 4 1 5 4
M  V30 5 1 6 1
M  V30 6 1 6 5
M  V30 7 1 7 3
M  V30 8 1 7 6
M  V30 9 1 1 8 CFG=3
M  V30 10 1 9 2
M  V30 11 1 10 2
M  V30 12 1 3 11 CFG=1
M  V30 13 1 12 4
M  V30 14 1 13 4
M  V30 15 1 14 5
M  V30 16 1 15 5
M  V30 17 1 6 16 CFG=1
M  V30 18 1 17 1
M  V30 END BOND
M  V30 END CTAB
M  END
$$$$
R-group 574 (43406-2)
     RDKit          3D

  0  0  0  0  0  0  0  0  0  0999 V3000
M  V30 BEGIN CTAB
M  V30 COUNTS 19 19 0 0 1
M  V30 BEGIN ATOM
M  V30 1 C 74.646700 55.180300 41.741900 0 CFG=1
M  V30 2 C 74.072700 56.196300 40.752400 0
M  V30 3 O 74.061500 56.048600 39.531800 0
M  V30 4 N 73.606900 57.260600 41.393100 0
M  V30 5 C 72.858400 58.360000 40.787300 0
M  V30 6 C 73.701900 57.148000 42.832000 0
M  V30 7 C 74.665500 55.983500 43.061900 0 CFG=2
M  V30 8 C 76.072200 56.491900 43.394900 0
M  V30 9 H 75.669300 54.986300 41.413100 0
M  V30 10 H 71.853700 58.057800 40.524600 0
M  V30 11 H 72.776400 59.200700 41.477700 0
M  V30 12 H 73.272200 58.703300 39.841200 0
M  V30 13 H 72.721300 56.915900 43.245500 0
M  V30 14 H 74.049800 58.067000 43.296700 0
M  V30 15 H 74.298100 55.401600 43.904000 0
M  V30 16 H 76.525200 56.958000 42.520600 0
M  V30 17 H 76.072300 57.240000 44.183800 0
M  V30 18 H 76.696100 55.667900 43.736500 0
M  V30 19 R 73.891900 53.816100 41.855200 0
M  V30 END ATOM
M  V30 BEGIN BOND
M  V30 1 1 2 1
M  V30 2 2 3 2
M  V30 3 1 4 2
M  V30 4 1 5 4
M  V30 5 1 6 4
M  V30 6 1 7 1
M  V30 7 1 7 6
M  V30 8 1 8 7
M  V30 9 1 1 9 CFG=3
M  V30 10 1 10 5
M  V30 11 1 11 5
M  V30 12 1 12 5
M  V30 13 1 13 6
M  V30 14 1 14 6
M  V30 15 1 7 15 CFG=1
M  V30 16 1 16 8
M  V30 17 1 17 8
M  V30 18 1 18 8
M  V30 19 1 19 1
M  V30 END BOND
M  V30 END CTAB
M  END
$$$$
R-group 575 (2424-1)
     RDKit          3D

  0  0  0  0  0  0  0  0  0  0999 V3000
M  V30 BEGIN CTAB
M  V30 COUNTS 11 11 0 0 1
M  V30 BEGIN ATOM
M  V30 1 C 73.933400 54.605400 41.850300 0
M  V30 2 C 73.671100 55.343900 40.744200 0
M  V30 3 C 73.842400 56.640000 41.226700 0
M  V30 4 N 73.271800 57.658100 40.522600 0
M  V30 5 N 74.384800 56.755600 42.417000 0
M  V30 6 N 74.462800 55.465600 42.795900 0
M  V30 7 H 73.209500 55.036400 39.819200 0
M  V30 8 H 73.124300 57.545600 39.529300 0
M  V30 9 H 73.457500 58.600200 40.832400 0
M  V30 10 H 74.719800 55.209900 43.739800 0
M  V30 11 R 73.623900 53.172400 42.056100 0
M  V30 END ATOM
M  V30 BEGIN BOND
M  V30 1 2 2 1
M  V30 2 1 3 2
M  V30 3 1 4 3
M  V30 4 2 5 3
M  V30 5 1 6 1
M  V30 6 1 6 5
M  V30 7 1 7 2
M  V30 8 1 8 4
M  V30 9 1 9 4
M  V30 10 1 10 6
M  V30 11 1 11 1
M  V30 END BOND
M  V30 END CTAB
M  END
$$$$
R-group 576 (43944-2)
     RDKit          3D

  0  0  0  0  0  0  0  0  0  0999 V3000
M  V30 BEGIN CTAB
M  V30 COUNTS 13 13 0 0 1
M  V30 BEGIN ATOM
M  V30 1 C 73.973400 55.293200 41.690000 0 CFG=2
M  V30 2 F 73.272300 55.857800 40.701700 0
M  V30 3 C 73.680000 56.062700 42.970100 0
M  V30 4 C 74.491800 57.332200 42.777600 0
M  V30 5 O 75.695400 56.857700 42.198400 0
M  V30 6 C 75.419900 55.703800 41.410000 0
M  V30 7 H 72.622600 56.248200 43.147200 0
M  V30 8 H 74.072700 55.529900 43.831600 0
M  V30 9 H 73.996000 58.015400 42.085000 0
M  V30 10 H 74.685900 57.865100 43.709100 0
M  V30 11 H 76.072200 54.907800 41.723000 0
M  V30 12 H 75.612000 55.901800 40.354300 0
M  V30 13 R 73.660400 53.755900 41.767900 0
M  V30 END ATOM
M  V30 BEGIN BOND
M  V30 1 1 2 1
M  V30 2 1 3 1
M  V30 3 1 4 3
M  V30 4 1 5 4
M  V30 5 1 6 1
M  V30 6 1 6 5
M  V30 7 1 7 3
M  V30 8 1 8 3
M  V30 9 1 9 4
M  V30 10 1 10 4
M  V30 11 1 11 6
M  V30 12 1 12 6
M  V30 13 1 1 13 CFG=1
M  V30 END BOND
M  V30 END CTAB
M  END
$$$$
R-group 577 (8721-1)
     RDKit          3D

  0  0  0  0  0  0  0  0  0  0999 V3000
M  V30 BEGIN CTAB
M  V30 COUNTS 15 14 0 0 1
M  V30 BEGIN ATOM
M  V30 1 C 73.430000 54.721900 41.835100 0
M  V30 2 O 74.642300 55.218300 41.282000 0
M  V30 3 C 74.945700 56.563200 41.588600 0
M  V30 4 C 75.559500 56.604200 42.989600 0
M  V30 5 C 73.740900 57.490200 41.435500 0
M  V30 6 H 72.614400 55.101500 41.225400 0
M  V30 7 H 73.269000 55.028500 42.865700 0
M  V30 8 H 75.717400 56.880900 40.883300 0
M  V30 9 H 75.749500 57.624600 43.323900 0
M  V30 10 H 74.908400 56.109600 43.698400 0
M  V30 11 H 76.489200 56.057300 43.008800 0
M  V30 12 H 74.059000 58.472500 41.723600 0
M  V30 13 H 73.376500 57.519100 40.411400 0
M  V30 14 H 72.913900 57.243200 42.100200 0
M  V30 15 R 73.395700 53.209600 41.737200 0
M  V30 END ATOM
M  V30 BEGIN BOND
M  V30 1 1 2 1
M  V30 2 1 3 2
M  V30 3 1 4 3
M  V30 4 1 5 3
M  V30 5 1 6 1
M  V30 6 1 7 1
M  V30 7 1 8 3
M  V30 8 1 9 4
M  V30 9 1 10 4
M  V30 10 1 11 4
M  V30 11 1 12 5
M  V30 12 1 13 5
M  V30 13 1 14 5
M  V30 14 1 15 1
M  V30 END BOND
M  V30 END CTAB
M  END
$$$$
R-group 578 (13581-1)
     RDKit          3D

  0  0  0  0  0  0  0  0  0  0999 V3000
M  V30 BEGIN CTAB
M  V30 COUNTS 16 15 0 0 1
M  V30 BEGIN ATOM
M  V30 1 O 73.677500 55.028400 42.164100 0
M  V30 2 C 74.959700 55.562100 41.852300 0 CFG=2
M  V30 3 C 75.667700 55.888100 43.180300 0
M  V30 4 C 74.799000 56.803400 40.949700 0 CFG=1
M  V30 5 C 76.173100 57.343400 40.534800 0
M  V30 6 O 74.134100 56.457500 39.747700 0
M  V30 7 H 75.588600 54.839600 41.337400 0
M  V30 8 H 76.716400 56.058400 42.980900 0
M  V30 9 H 75.272200 56.764400 43.694400 0
M  V30 10 H 75.626600 55.063900 43.885100 0
M  V30 11 H 74.220800 57.577800 41.455900 0
M  V30 12 H 76.681400 57.843500 41.358600 0
M  V30 13 H 76.826400 56.543600 40.185600 0
M  V30 14 H 76.076300 58.057900 39.724800 0
M  V30 15 H 74.067800 57.224900 39.195700 0
M  V30 16 R 73.458000 53.638300 41.893000 0
M  V30 END ATOM
M  V30 BEGIN BOND
M  V30 1 1 2 1
M  V30 2 1 3 2
M  V30 3 1 4 2
M  V30 4 1 5 4
M  V30 5 1 6 4
M  V30 6 1 2 7 CFG=3
M  V30 7 1 8 3
M  V30 8 1 9 3
M  V30 9 1 10 3
M  V30 10 1 4 11 CFG=1
M  V30 11 1 12 5
M  V30 12 1 13 5
M  V30 13 1 14 5
M  V30 14 1 15 6
M  V30 15 1 16 1
M  V30 END BOND
M  V30 END CTAB
M  END
$$$$
R-group 579 (10595-2)
     RDKit          3D

  0  0  0  0  0  0  0  0  0  0999 V3000
M  V30 BEGIN CTAB
M  V30 COUNTS 18 18 0 0 1
M  V30 BEGIN ATOM
M  V30 1 C 73.146900 57.589700 43.324700 0
M  V30 2 C 73.233600 56.057700 43.257400 0
M  V30 3 C 73.862700 55.469700 41.983300 0 CFG=1
M  V30 4 C 75.328400 55.861700 41.874500 0
M  V30 5 C 75.917300 56.151100 40.524400 0
M  V30 6 C 75.801800 57.256300 41.528900 0
M  V30 7 H 72.538400 57.890100 44.176100 0
M  V30 8 H 74.125000 58.051700 43.445400 0
M  V30 9 H 72.684200 58.005400 42.429100 0
M  V30 10 H 72.214100 55.677500 43.324700 0
M  V30 11 H 73.777300 55.658100 44.113100 0
M  V30 12 H 73.342200 55.959100 41.159500 0
M  V30 13 H 75.963500 55.385100 42.613100 0
M  V30 14 H 76.872200 55.687300 40.326600 0
M  V30 15 H 75.247000 56.233000 39.672100 0
M  V30 16 H 75.045000 58.004800 41.324900 0
M  V30 17 H 76.720100 57.617900 41.988500 0
M  V30 18 R 73.604500 53.920400 41.856400 0
M  V30 END ATOM
M  V30 BEGIN BOND
M  V30 1 1 2 1
M  V30 2 1 3 2
M  V30 3 1 4 3
M  V30 4 1 5 4
M  V30 5 1 6 4
M  V30 6 1 6 5
M  V30 7 1 7 1
M  V30 8 1 8 1
M  V30 9 1 9 1
M  V30 10 1 10 2
M  V30 11 1 11 2
M  V30 12 1 3 12 CFG=3
M  V30 13 1 13 4
M  V30 14 1 14 5
M  V30 15 1 15 5
M  V30 16 1 16 6
M  V30 17 1 17 6
M  V30 18 1 18 3
M  V30 END BOND
M  V30 END CTAB
M  END
$$$$
R-group 580 (41520-1)
     RDKit          3D

  0  0  0  0  0  0  0  0  0  0999 V3000
M  V30 BEGIN CTAB
M  V30 COUNTS 19 19 0 0 1
M  V30 BEGIN ATOM
M  V30 1 C 73.331000 54.859700 42.174400 0
M  V30 2 C 74.537600 55.702500 42.667100 0 CFG=1
M  V30 3 C 75.640900 55.917000 41.612100 0
M  V30 4 C 75.295000 57.215600 40.863100 0
M  V30 5 C 74.063700 57.785700 41.580200 0
M  V30 6 C 74.108900 57.144400 42.940900 0 CFG=1
M  V30 7 O 72.872300 57.273200 43.600100 0
M  V30 8 H 72.873000 55.389400 41.346700 0
M  V30 9 H 72.548700 54.826900 42.924500 0
M  V30 10 H 74.952300 55.265500 43.574800 0
M  V30 11 H 76.591800 56.060100 42.124700 0
M  V30 12 H 75.776400 55.074500 40.938900 0
M  V30 13 H 75.083100 57.032800 39.808900 0
M  V30 14 H 76.134300 57.907900 40.920900 0
M  V30 15 H 73.154900 57.527800 41.036600 0
M  V30 16 H 74.050800 58.857800 41.724600 0
M  V30 17 H 74.873200 57.655100 43.532900 0
M  V30 18 H 72.818600 56.591300 44.257900 0
M  V30 19 R 73.564700 53.421800 41.693800 0
M  V30 END ATOM
M  V30 BEGIN BOND
M  V30 1 1 2 1
M  V30 2 1 3 2
M  V30 3 1 4 3
M  V30 4 1 5 4
M  V30 5 1 6 2
M  V30 6 1 6 5
M  V30 7 1 7 6
M  V30 8 1 8 1
M  V30 9 1 9 1
M  V30 10 1 2 10 CFG=1
M  V30 11 1 11 3
M  V30 12 1 12 3
M  V30 13 1 13 4
M  V30 14 1 14 4
M  V30 15 1 15 5
M  V30 16 1 16 5
M  V30 17 1 6 17 CFG=1
M  V30 18 1 18 7
M  V30 19 1 19 1
M  V30 END BOND
M  V30 END CTAB
M  END
$$$$
R-group 581 (120-1)
     RDKit          3D

  0  0  0  0  0  0  0  0  0  0999 V3000
M  V30 BEGIN CTAB
M  V30 COUNTS 14 13 0 0 1
M  V30 BEGIN ATOM
M  V30 1 C 74.589100 57.152300 39.906600 0
M  V30 2 C 73.410700 57.108400 40.892900 0
M  V30 3 C 73.768600 56.616000 42.310500 0
M  V30 4 C 74.611800 55.330900 42.429400 0
M  V30 5 H 74.318400 57.700100 39.003600 0
M  V30 6 H 75.471700 57.624500 40.344200 0
M  V30 7 H 74.871600 56.156500 39.580800 0
M  V30 8 H 72.602300 56.520400 40.463900 0
M  V30 9 H 73.007200 58.117300 40.985300 0
M  V30 10 H 72.872200 56.516700 42.919900 0
M  V30 11 H 74.339300 57.416600 42.785400 0
M  V30 12 H 75.035900 55.373700 43.433700 0
M  V30 13 H 75.482700 55.385000 41.777200 0
M  V30 14 R 73.896300 53.958500 42.279000 0
M  V30 END ATOM
M  V30 BEGIN BOND
M  V30 1 1 2 1
M  V30 2 1 3 2
M  V30 3 1 4 3
M  V30 4 1 5 1
M  V30 5 1 6 1
M  V30 6 1 7 1
M  V30 7 1 8 2
M  V30 8 1 9 2
M  V30 9 1 10 3
M  V30 10 1 11 3
M  V30 11 1 12 4
M  V30 12 1 13 4
M  V30 13 1 14 4
M  V30 END BOND
M  V30 END CTAB
M  END
$$$$
R-group 582 (18138-1)
     RDKit          3D

  0  0  0  0  0  0  0  0  0  0999 V3000
M  V30 BEGIN CTAB
M  V30 COUNTS 19 19 0 0 1
M  V30 BEGIN ATOM
M  V30 1 O 73.512600 54.828000 41.746500 0
M  V30 2 C 73.078600 55.465500 42.924800 0
M  V30 3 C 73.082300 56.964800 42.771900 0
M  V30 4 C 74.504800 57.435500 42.650100 0
M  V30 5 C 75.087800 57.258100 41.264400 0
M  V30 6 C 76.520800 57.663000 41.013700 0
M  V30 7 C 76.145000 56.216400 41.062000 0
M  V30 8 H 72.070900 55.157700 43.207000 0
M  V30 9 H 73.782900 55.250600 43.724300 0
M  V30 10 H 72.493800 57.308600 41.920600 0
M  V30 11 H 72.638100 57.407100 43.665600 0
M  V30 12 H 74.469500 58.457800 42.940100 0
M  V30 13 H 75.165500 56.963800 43.376200 0
M  V30 14 H 74.387200 57.389100 40.442100 0
M  V30 15 H 76.776000 58.088300 40.046500 0
M  V30 16 H 77.066300 58.056700 41.863700 0
M  V30 17 H 76.387900 55.663900 41.955800 0
M  V30 18 H 76.190400 55.674000 40.126600 0
M  V30 19 R 73.358300 53.426200 41.780700 0
M  V30 END ATOM
M  V30 BEGIN BOND
M  V30 1 1 2 1
M  V30 2 1 3 2
M  V30 3 1 4 3
M  V30 4 1 5 4
M  V30 5 1 6 5
M  V30 6 1 7 5
M  V30 7 1 7 6
M  V30 8 1 8 2
M  V30 9 1 9 2
M  V30 10 1 10 3
M  V30 11 1 11 3
M  V30 12 1 12 4
M  V30 13 1 13 4
M  V30 14 1 14 5
M  V30 15 1 15 6
M  V30 16 1 16 6
M  V30 17 1 17 7
M  V30 18 1 18 7
M  V30 19 1 19 1
M  V30 END BOND
M  V30 END CTAB
M  END
$$$$
R-group 583 (43127-1)
     RDKit          3D

  0  0  0  0  0  0  0  0  0  0999 V3000
M  V30 BEGIN CTAB
M  V30 COUNTS 12 11 0 0 1
M  V30 BEGIN ATOM
M  V30 1 C 74.084600 55.315500 41.656300 0 CFG=2
M  V30 2 C 75.588700 55.615400 41.579300 0
M  V30 3 O 73.517400 55.964800 40.525700 0
M  V30 4 C 73.521500 56.009800 42.904400 0
M  V30 5 F 73.675000 57.333300 42.844300 0
M  V30 6 H 76.072200 55.269200 42.483900 0
M  V30 7 H 76.071900 55.156300 40.723900 0
M  V30 8 H 75.783600 56.686000 41.511300 0
M  V30 9 H 72.472700 55.800700 43.079200 0
M  V30 10 H 74.066500 55.657900 43.771500 0
M  V30 11 H 73.671000 56.893400 40.612100 0
M  V30 12 R 73.687600 53.784000 41.682000 0
M  V30 END ATOM
M  V30 BEGIN BOND
M  V30 1 1 2 1
M  V30 2 1 3 1
M  V30 3 1 4 1
M  V30 4 1 5 4
M  V30 5 1 6 2
M  V30 6 1 7 2
M  V30 7 1 8 2
M  V30 8 1 9 4
M  V30 9 1 10 4
M  V30 10 1 11 3
M  V30 11 1 1 12 CFG=1
M  V30 END BOND
M  V30 END CTAB
M  END
$$$$
R-group 584 (17645-2)
     RDKit          3D

  0  0  0  0  0  0  0  0  0  0999 V3000
M  V30 BEGIN CTAB
M  V30 COUNTS 16 15 0 0 1
M  V30 BEGIN ATOM
M  V30 1 C 73.332100 57.638400 43.028500 0
M  V30 2 O 74.695800 57.258000 42.924700 0
M  V30 3 C 75.090700 56.825200 41.639800 0 CFG=1
M  V30 4 C 76.478100 57.387100 41.302700 0
M  V30 5 C 75.123700 55.317200 41.771800 0
M  V30 6 O 73.767300 54.899500 41.851300 0
M  V30 7 H 73.145900 58.058900 44.013600 0
M  V30 8 H 73.064100 58.394800 42.289200 0
M  V30 9 H 72.673000 56.780700 42.925000 0
M  V30 10 H 74.388600 57.126900 40.859200 0
M  V30 11 H 76.871600 56.911300 40.405200 0
M  V30 12 H 76.472100 58.458300 41.113300 0
M  V30 13 H 77.183100 57.215900 42.110500 0
M  V30 14 H 75.671900 55.038800 42.672700 0
M  V30 15 H 75.655000 54.890800 40.929000 0
M  V30 16 R 73.483700 53.514300 41.794500 0
M  V30 END ATOM
M  V30 BEGIN BOND
M  V30 1 1 2 1
M  V30 2 1 3 2
M  V30 3 1 4 3
M  V30 4 1 5 3
M  V30 5 1 6 5
M  V30 6 1 7 1
M  V30 7 1 8 1
M  V30 8 1 9 1
M  V30 9 1 3 10 CFG=3
M  V30 10 1 11 4
M  V30 11 1 12 4
M  V30 12 1 13 4
M  V30 13 1 14 5
M  V30 14 1 15 5
M  V30 15 1 16 6
M  V30 END BOND
M  V30 END CTAB
M  END
$$$$
R-group 585 (587-1)
     RDKit          3D

  0  0  0  0  0  0  0  0  0  0999 V3000
M  V30 BEGIN CTAB
M  V30 COUNTS 12 11 0 0 1
M  V30 BEGIN ATOM
M  V30 1 C 73.128700 58.263700 41.930000 0
M  V30 2 C 73.724100 57.497400 43.117000 0
M  V30 3 N 73.672300 56.058000 42.924700 0
M  V30 4 C 74.315700 55.349300 41.991500 0
M  V30 5 O 75.168900 55.845500 41.256900 0
M  V30 6 H 73.180900 59.323900 42.123200 0
M  V30 7 H 73.661500 58.058300 41.001600 0
M  V30 8 H 72.073800 58.058000 41.774600 0
M  V30 9 H 73.143700 57.734800 44.008300 0
M  V30 10 H 74.751700 57.803000 43.319000 0
M  V30 11 H 73.052300 55.541800 43.544500 0
M  V30 12 R 73.894200 53.867300 41.869500 0
M  V30 END ATOM
M  V30 BEGIN BOND
M  V30 1 1 2 1
M  V30 2 1 3 2
M  V30 3 1 4 3
M  V30 4 2 5 4
M  V30 5 1 6 1
M  V30 6 1 7 1
M  V30 7 1 8 1
M  V30 8 1 9 2
M  V30 9 1 10 2
M  V30 10 1 11 3
M  V30 11 1 12 4
M  V30 END BOND
M  V30 END CTAB
M  END
$$$$
R-group 586 (1464-1)
     RDKit          3D

  0  0  0  0  0  0  0  0  0  0999 V3000
M  V30 BEGIN CTAB
M  V30 COUNTS 9 8 0 0 1
M  V30 BEGIN ATOM
M  V30 1 N 73.551600 54.982500 42.302500 0
M  V30 2 S 74.742100 56.214100 42.197900 0
M  V30 3 N 73.672200 57.504500 42.524700 0
M  V30 4 O 75.672200 56.058400 43.324600 0
M  V30 5 O 75.210700 56.366900 40.815400 0
M  V30 6 H 73.923900 57.988500 43.385500 0
M  V30 7 H 73.087600 54.993300 43.217200 0
M  V30 8 H 73.617500 58.142500 41.730600 0
M  V30 9 R 73.695000 53.624900 41.796500 0
M  V30 END ATOM
M  V30 BEGIN BOND
M  V30 1 1 2 1
M  V30 2 1 3 2
M  V30 3 2 4 2
M  V30 4 2 5 2
M  V30 5 1 6 3
M  V30 6 1 7 1
M  V30 7 1 8 3
M  V30 8 1 9 1
M  V30 END BOND
M  V30 END CTAB
M  END
$$$$
R-group 587 (2707-1)
     RDKit          3D

  0  0  0  0  0  0  0  0  0  0999 V3000
M  V30 BEGIN CTAB
M  V30 COUNTS 11 11 0 0 1
M  V30 BEGIN ATOM
M  V30 1 C 72.654600 54.204800 42.077500 0
M  V30 2 C 73.672400 55.291800 41.987800 0
M  V30 3 C 74.603900 55.651800 42.923600 0
M  V30 4 S 75.672200 56.857700 42.298500 0
M  V30 5 C 74.771500 56.851600 40.803500 0
M  V30 6 N 73.726700 56.033500 40.804600 0
M  V30 7 H 71.798300 54.457900 41.449600 0
M  V30 8 H 72.225100 54.099300 43.061100 0
M  V30 9 H 74.735100 55.251700 43.916300 0
M  V30 10 H 75.000000 57.436600 39.923700 0
M  V30 11 R 73.218800 52.867100 41.604200 0
M  V30 END ATOM
M  V30 BEGIN BOND
M  V30 1 1 2 1
M  V30 2 2 3 2
M  V30 3 1 4 3
M  V30 4 1 5 4
M  V30 5 1 6 2
M  V30 6 2 6 5
M  V30 7 1 7 1
M  V30 8 1 8 1
M  V30 9 1 9 3
M  V30 10 1 10 5
M  V30 11 1 11 1
M  V30 END BOND
M  V30 END CTAB
M  END
$$$$
R-group 588 (10776-3)
     RDKit          3D

  0  0  0  0  0  0  0  0  0  0999 V3000
M  V30 BEGIN CTAB
M  V30 COUNTS 21 21 0 0 1
M  V30 BEGIN ATOM
M  V30 1 C 74.074800 54.934600 41.892100 0 CFG=2
M  V30 2 C 73.614900 55.768500 43.108500 0
M  V30 3 C 73.918200 57.264100 42.960600 0
M  V30 4 C 73.401500 57.821400 41.643800 0
M  V30 5 C 73.975100 57.027300 40.479600 0 CFG=2
M  V30 6 C 73.481700 57.463200 39.123000 0
M  V30 7 C 73.552200 55.587200 40.606800 0
M  V30 8 H 75.163400 54.996600 41.841200 0
M  V30 9 H 72.540800 55.656400 43.260000 0
M  V30 10 H 74.092300 55.401900 44.013300 0
M  V30 11 H 73.432300 57.833600 43.744300 0
M  V30 12 H 74.991400 57.434800 43.052100 0
M  V30 13 H 73.671500 58.858000 41.592700 0
M  V30 14 H 72.319500 57.817300 41.615700 0
M  V30 15 H 75.064200 57.096700 40.493700 0
M  V30 16 H 72.419600 57.257600 39.003000 0
M  V30 17 H 73.675700 58.518900 38.924900 0
M  V30 18 H 73.991100 56.858000 38.368600 0
M  V30 19 H 73.923700 55.104300 39.714000 0
M  V30 20 H 72.471500 55.503400 40.526400 0
M  V30 21 R 73.679100 53.435900 42.000800 0
M  V30 END ATOM
M  V30 BEGIN BOND
M  V30 1 1 2 1
M  V30 2 1 3 2
M  V30 3 1 4 3
M  V30 4 1 5 4
M  V30 5 1 6 5
M  V30 6 1 7 1
M  V30 7 1 7 5
M  V30 8 1 1 8 CFG=3
M  V30 9 1 9 2
M  V30 10 1 10 2
M  V30 11 1 11 3
M  V30 12 1 12 3
M  V30 13 1 13 4
M  V30 14 1 14 4
M  V30 15 1 5 15 CFG=3
M  V30 16 1 16 6
M  V30 17 1 17 6
M  V30 18 1 18 6
M  V30 19 1 19 7
M  V30 20 1 20 7
M  V30 21 1 21 1
M  V30 END BOND
M  V30 END CTAB
M  END
$$$$
R-group 589 (37768-2)
     RDKit          3D

  0  0  0  0  0  0  0  0  0  0999 V3000
M  V30 BEGIN CTAB
M  V30 COUNTS 16 16 0 0 1
M  V30 BEGIN ATOM
M  V30 1 C 73.897000 55.354000 41.875400 0 CFG=1
M  V30 2 C 73.297400 56.018500 43.119600 0
M  V30 3 O 73.272300 57.421900 42.924900 0
M  V30 4 C 75.365500 55.755000 41.729000 0
M  V30 5 C 75.910000 56.138100 40.382900 0
M  V30 6 C 75.839500 57.172000 41.459600 0
M  V30 7 H 73.362100 55.789400 41.030100 0
M  V30 8 H 72.281300 55.678600 43.324700 0
M  V30 9 H 73.893400 55.726300 43.981300 0
M  V30 10 H 76.028600 55.258000 42.423500 0
M  V30 11 H 76.873400 55.722600 40.125200 0
M  V30 12 H 75.212800 56.265300 39.557700 0
M  V30 13 H 75.097800 57.948600 41.324700 0
M  V30 14 H 76.777500 57.491500 41.910300 0
M  V30 15 H 72.734400 57.615000 42.172400 0
M  V30 16 R 73.635200 53.805600 41.842300 0
M  V30 END ATOM
M  V30 BEGIN BOND
M  V30 1 1 2 1
M  V30 2 1 3 2
M  V30 3 1 4 1
M  V30 4 1 5 4
M  V30 5 1 6 4
M  V30 6 1 6 5
M  V30 7 1 1 7 CFG=3
M  V30 8 1 8 2
M  V30 9 1 9 2
M  V30 10 1 10 4
M  V30 11 1 11 5
M  V30 12 1 12 5
M  V30 13 1 13 6
M  V30 14 1 14 6
M  V30 15 1 15 3
M  V30 16 1 16 1
M  V30 END BOND
M  V30 END CTAB
M  END
$$$$
R-group 590 (5606-1)
     RDKit          3D

  0  0  0  0  0  0  0  0  0  0999 V3000
M  V30 BEGIN CTAB
M  V30 COUNTS 10 10 0 0 1
M  V30 BEGIN ATOM
M  V30 1 N 72.946400 54.127800 42.124700 0
M  V30 2 C 73.671900 55.301200 42.138800 0
M  V30 3 N 74.757000 55.564300 41.420600 0
M  V30 4 C 74.950000 56.857400 41.785500 0
M  V30 5 N 74.061500 57.351400 42.649300 0
M  V30 6 N 73.278600 56.301100 42.923700 0
M  V30 7 H 75.759000 57.460100 41.391700 0
M  V30 8 H 72.221700 54.080700 42.829100 0
M  V30 9 H 72.507700 56.322100 43.581500 0
M  V30 10 R 73.314100 52.851400 41.613200 0
M  V30 END ATOM
M  V30 BEGIN BOND
M  V30 1 1 2 1
M  V30 2 2 3 2
M  V30 3 1 4 3
M  V30 4 2 5 4
M  V30 5 1 6 2
M  V30 6 1 6 5
M  V30 7 1 7 4
M  V30 8 1 8 1
M  V30 9 1 9 6
M  V30 10 1 10 1
M  V30 END BOND
M  V30 END CTAB
M  END
$$$$
R-group 591 (1255-1)
     RDKit          3D

  0  0  0  0  0  0  0  0  0  0999 V3000
M  V30 BEGIN CTAB
M  V30 COUNTS 18 17 0 0 1
M  V30 BEGIN ATOM
M  V30 1 C 73.783500 54.854100 41.502900 0
M  V30 2 O 73.273400 55.525800 40.598700 0
M  V30 3 N 74.663600 55.303100 42.397100 0
M  V30 4 C 75.216800 56.606300 42.637600 0
M  V30 5 C 76.048400 57.071900 41.424900 0
M  V30 6 C 76.127800 56.401000 43.858000 0
M  V30 7 C 74.070000 57.569400 42.965000 0
M  V30 8 H 76.481900 58.056800 41.586300 0
M  V30 9 H 75.450700 57.126300 40.517300 0
M  V30 10 H 76.872100 56.390300 41.220300 0
M  V30 11 H 75.672400 56.047300 44.758800 0
M  V30 12 H 76.872300 55.658500 43.720100 0
M  V30 13 H 76.701400 57.257800 44.123500 0
M  V30 14 H 73.366400 57.137400 43.678800 0
M  V30 15 H 74.472200 58.460000 43.423000 0
M  V30 16 H 73.510600 57.863600 42.079600 0
M  V30 17 H 74.967000 54.601600 43.058800 0
M  V30 18 R 73.465300 53.364200 41.677500 0
M  V30 END ATOM
M  V30 BEGIN BOND
M  V30 1 2 2 1
M  V30 2 1 3 1
M  V30 3 1 4 3
M  V30 4 1 5 4
M  V30 5 1 6 4
M  V30 6 1 7 4
M  V30 7 1 8 5
M  V30 8 1 9 5
M  V30 9 1 10 5
M  V30 10 1 11 6
M  V30 11 1 12 6
M  V30 12 1 13 6
M  V30 13 1 14 7
M  V30 14 1 15 7
M  V30 15 1 16 7
M  V30 16 1 17 3
M  V30 17 1 18 1
M  V30 END BOND
M  V30 END CTAB
M  END
$$$$
R-group 592 (5020-1)
     RDKit          3D

  0  0  0  0  0  0  0  0  0  0999 V3000
M  V30 BEGIN CTAB
M  V30 COUNTS 20 19 0 0 1
M  V30 BEGIN ATOM
M  V30 1 C 73.045900 58.385800 41.926300 0
M  V30 2 C 73.597000 57.612600 43.139700 0
M  V30 3 C 73.520700 56.065800 43.077100 0
M  V30 4 C 74.060600 55.373700 41.802400 0 CFG=1
M  V30 5 C 75.572500 55.668400 41.603300 0
M  V30 6 C 75.907200 56.901400 40.755700 0
M  V30 7 H 72.919000 59.446700 42.124700 0
M  V30 8 H 73.669300 58.279000 41.046300 0
M  V30 9 H 72.072300 58.056000 41.630600 0
M  V30 10 H 73.033800 57.932300 44.017000 0
M  V30 11 H 74.625300 57.919600 43.324700 0
M  V30 12 H 72.481100 55.779800 43.240500 0
M  V30 13 H 74.071800 55.657800 43.926000 0
M  V30 14 H 73.527000 55.833300 40.971000 0
M  V30 15 H 76.072300 55.726000 42.569300 0
M  V30 16 H 76.049400 54.856600 41.080500 0
M  V30 17 H 76.932600 56.858700 40.401200 0
M  V30 18 H 75.272500 56.967900 39.871700 0
M  V30 19 H 75.822000 57.821200 41.324700 0
M  V30 20 R 73.677600 53.842500 41.759900 0
M  V30 END ATOM
M  V30 BEGIN BOND
M  V30 1 1 2 1
M  V30 2 1 3 2
M  V30 3 1 4 3
M  V30 4 1 5 4
M  V30 5 1 6 5
M  V30 6 1 7 1
M  V30 7 1 8 1
M  V30 8 1 9 1
M  V30 9 1 10 2
M  V30 10 1 11 2
M  V30 11 1 12 3
M  V30 12 1 13 3
M  V30 13 1 4 14 CFG=3
M  V30 14 1 15 5
M  V30 15 1 16 5
M  V30 16 1 17 6
M  V30 17 1 18 6
M  V30 18 1 19 6
M  V30 19 1 20 4
M  V30 END BOND
M  V30 END CTAB
M  END
$$$$
R-group 593 (4297-1)
     RDKit          3D

  0  0  0  0  0  0  0  0  0  0999 V3000
M  V30 BEGIN CTAB
M  V30 COUNTS 10 10 0 0 1
M  V30 BEGIN ATOM
M  V30 1 C 74.125700 54.776600 41.621600 0
M  V30 2 C 73.672200 55.726400 42.525000 0
M  V30 3 C 73.901900 56.874900 41.883500 0
M  V30 4 N 73.272200 58.058000 42.099200 0
M  V30 5 O 74.711600 56.706000 40.817100 0
M  V30 6 N 74.873000 55.323800 40.676100 0
M  V30 7 H 72.977500 55.584700 43.325700 0
M  V30 8 H 72.635900 58.206900 42.865000 0
M  V30 9 H 73.583300 58.904800 41.639100 0
M  V30 10 R 73.752400 53.339400 41.696800 0
M  V30 END ATOM
M  V30 BEGIN BOND
M  V30 1 1 2 1
M  V30 2 2 3 2
M  V30 3 1 4 3
M  V30 4 1 5 3
M  V30 5 2 6 1
M  V30 6 1 6 5
M  V30 7 1 7 2
M  V30 8 1 8 4
M  V30 9 1 9 4
M  V30 10 1 10 1
M  V30 END BOND
M  V30 END CTAB
M  END
$$$$
R-group 594 (3267-2)
     RDKit          3D

  0  0  0  0  0  0  0  0  0  0999 V3000
M  V30 BEGIN CTAB
M  V30 COUNTS 16 16 0 0 1
M  V30 BEGIN ATOM
M  V30 1 C 74.691900 55.157200 41.774200 0 CFG=2
M  V30 2 C 74.794200 55.937500 43.097900 0
M  V30 3 C 73.913600 57.175700 42.933200 0
M  V30 4 N 73.672200 57.262400 41.509500 0
M  V30 5 C 72.843300 58.327700 40.952600 0
M  V30 6 C 74.072500 56.190000 40.835400 0
M  V30 7 O 73.966000 56.041700 39.619400 0
M  V30 8 H 75.695600 54.967600 41.399100 0
M  V30 9 H 74.472700 55.366200 43.966200 0
M  V30 10 H 75.830100 56.235700 43.273300 0
M  V30 11 H 74.403600 58.064200 43.327600 0
M  V30 12 H 72.962200 57.049500 43.453000 0
M  V30 13 H 71.964000 57.877300 40.524500 0
M  V30 14 H 72.540800 59.049400 41.712600 0
M  V30 15 H 73.272200 58.854500 40.105600 0
M  V30 16 R 73.925200 53.799400 41.902000 0
M  V30 END ATOM
M  V30 BEGIN BOND
M  V30 1 1 2 1
M  V30 2 1 3 2
M  V30 3 1 4 3
M  V30 4 1 5 4
M  V30 5 1 6 1
M  V30 6 1 6 4
M  V30 7 2 7 6
M  V30 8 1 1 8 CFG=3
M  V30 9 1 9 2
M  V30 10 1 10 2
M  V30 11 1 11 3
M  V30 12 1 12 3
M  V30 13 1 13 5
M  V30 14 1 14 5
M  V30 15 1 15 5
M  V30 16 1 16 1
M  V30 END BOND
M  V30 END CTAB
M  END
$$$$
R-group 595 (35211-2)
     RDKit          3D

  0  0  0  0  0  0  0  0  0  0999 V3000
M  V30 BEGIN CTAB
M  V30 COUNTS 17 17 0 0 1
M  V30 BEGIN ATOM
M  V30 1 O 73.155900 54.454100 42.125400 0
M  V30 2 C 74.106700 55.428700 41.746200 0 CFG=1
M  V30 3 C 73.545500 56.193600 40.555200 0
M  V30 4 C 73.882600 57.601700 40.914600 0
M  V30 5 O 73.670400 57.666100 42.311600 0
M  V30 6 C 74.210300 56.474600 42.868700 0 CFG=2
M  V30 7 C 75.654000 56.751400 43.324200 0
M  V30 8 H 75.091800 55.008000 41.524400 0
M  V30 9 H 74.001000 55.930200 39.602700 0
M  V30 10 H 72.472800 56.068500 40.467700 0
M  V30 11 H 74.950700 57.657700 40.701900 0
M  V30 12 H 73.287500 58.335700 40.363100 0
M  V30 13 H 73.601200 56.183400 43.724800 0
M  V30 14 H 76.067500 55.897700 43.864100 0
M  V30 15 H 76.316100 56.972700 42.485500 0
M  V30 16 H 75.672500 57.614400 43.987200 0
M  V30 17 R 73.408100 53.132000 41.714100 0
M  V30 END ATOM
M  V30 BEGIN BOND
M  V30 1 1 2 1
M  V30 2 1 3 2
M  V30 3 1 4 3
M  V30 4 1 5 4
M  V30 5 1 6 2
M  V30 6 1 6 5
M  V30 7 1 7 6
M  V30 8 1 2 8 CFG=3
M  V30 9 1 9 3
M  V30 10 1 10 3
M  V30 11 1 11 4
M  V30 12 1 12 4
M  V30 13 1 6 13 CFG=1
M  V30 14 1 14 7
M  V30 15 1 15 7
M  V30 16 1 16 7
M  V30 17 1 17 1
M  V30 END BOND
M  V30 END CTAB
M  END
$$$$
R-group 596 (2328-2)
     RDKit          3D

  0  0  0  0  0  0  0  0  0  0999 V3000
M  V30 BEGIN CTAB
M  V30 COUNTS 9 9 0 0 1
M  V30 BEGIN ATOM
M  V30 1 C 73.859800 55.314000 42.362800 0 CFG=2
M  V30 2 C 73.714700 56.591000 41.544000 0
M  V30 3 C 75.041300 56.237600 42.170100 0
M  V30 4 F 75.458200 56.987500 43.254200 0
M  V30 5 F 76.070900 55.851800 41.329900 0
M  V30 6 H 73.374000 55.377500 43.324700 0
M  V30 7 H 73.647800 56.536900 40.459800 0
M  V30 8 H 73.154700 57.408100 41.995700 0
M  V30 9 R 73.798900 53.897900 41.775200 0
M  V30 END ATOM
M  V30 BEGIN BOND
M  V30 1 1 2 1
M  V30 2 1 3 1
M  V30 3 1 3 2
M  V30 4 1 4 3
M  V30 5 1 5 3
M  V30 6 1 1 6 CFG=1
M  V30 7 1 7 2
M  V30 8 1 8 2
M  V30 9 1 9 1
M  V30 END BOND
M  V30 END CTAB
M  END
$$$$
R-group 597 (44402-1)
     RDKit          3D

  0  0  0  0  0  0  0  0  0  0999 V3000
M  V30 BEGIN CTAB
M  V30 COUNTS 22 22 0 0 1
M  V30 BEGIN ATOM
M  V30 1 C 73.769000 54.745500 41.608700 0
M  V30 2 C 73.272300 55.308500 40.332900 0
M  V30 3 N 72.892500 55.746800 39.325500 0
M  V30 4 C 73.157800 55.465900 42.820000 0
M  V30 5 C 73.187700 56.976800 42.826300 0
M  V30 6 C 74.614300 57.487100 42.865400 0
M  V30 7 C 75.243700 57.472800 41.459200 0
M  V30 8 C 75.955900 56.184100 41.172200 0
M  V30 9 C 75.293900 54.914000 41.643300 0
M  V30 10 H 72.121400 55.147000 42.925000 0
M  V30 11 H 73.712100 55.200100 43.713800 0
M  V30 12 H 72.646000 57.405000 41.981400 0
M  V30 13 H 72.670400 57.318300 43.724700 0
M  V30 14 H 74.476700 58.458200 43.303100 0
M  V30 15 H 75.268400 56.966100 43.567600 0
M  V30 16 H 74.489600 57.655300 40.693200 0
M  V30 17 H 76.045200 58.191200 41.321500 0
M  V30 18 H 76.221600 56.133100 40.125400 0
M  V30 19 H 76.878700 56.240900 41.724100 0
M  V30 20 H 75.665200 54.715700 42.643200 0
M  V30 21 H 75.681000 54.157700 40.988400 0
M  V30 22 R 73.424400 53.219500 41.762600 0
M  V30 END ATOM
M  V30 BEGIN BOND
M  V30 1 1 2 1
M  V30 2 3 3 2
M  V30 3 1 4 1
M  V30 4 1 5 4
M  V30 5 1 6 5
M  V30 6 1 7 6
M  V30 7 1 8 7
M  V30 8 1 9 1
M  V30 9 1 9 8
M  V30 10 1 10 4
M  V30 11 1 11 4
M  V30 12 1 12 5
M  V30 13 1 13 5
M  V30 14 1 14 6
M  V30 15 1 15 6
M  V30 16 1 16 7
M  V30 17 1 17 7
M  V30 18 1 18 8
M  V30 19 1 19 8
M  V30 20 1 20 9
M  V30 21 1 21 9
M  V30 22 1 22 1
M  V30 END BOND
M  V30 END CTAB
M  END
$$$$
R-group 598 (3537-1)
     RDKit          3D

  0  0  0  0  0  0  0  0  0  0999 V3000
M  V30 BEGIN CTAB
M  V30 COUNTS 11 11 0 0 1
M  V30 BEGIN ATOM
M  V30 1 N 74.455200 55.150300 41.688700 0
M  V30 2 C 74.231900 55.987500 42.863300 0
M  V30 3 C 74.228900 57.164200 41.887400 0
M  V30 4 F 73.272200 58.057600 42.127600 0
M  V30 5 C 73.827000 56.146000 40.826800 0
M  V30 6 H 73.260000 55.790400 43.319900 0
M  V30 7 H 75.072800 55.930600 43.554700 0
M  V30 8 H 75.204800 57.618100 41.720100 0
M  V30 9 H 74.343700 56.221200 39.869200 0
M  V30 10 H 72.760700 55.974900 40.733200 0
M  V30 11 R 73.824200 53.824800 41.780000 0
M  V30 END ATOM
M  V30 BEGIN BOND
M  V30 1 1 2 1
M  V30 2 1 3 2
M  V30 3 1 4 3
M  V30 4 1 5 1
M  V30 5 1 5 3
M  V30 6 1 6 2
M  V30 7 1 7 2
M  V30 8 1 8 3
M  V30 9 1 9 5
M  V30 10 1 10 5
M  V30 11 1 11 1
M  V30 END BOND
M  V30 END CTAB
M  END
$$$$
R-group 599 (7088-1)
     RDKit          3D

  0  0  0  0  0  0  0  0  0  0999 V3000
M  V30 BEGIN CTAB
M  V30 COUNTS 16 16 0 0 1
M  V30 BEGIN ATOM
M  V30 1 C 76.176200 57.483500 43.323400 0
M  V30 2 O 75.696100 56.304900 42.760700 0
M  V30 3 C 74.496600 56.504000 42.073400 0 CFG=1
M  V30 4 C 74.477700 55.516200 40.926800 0
M  V30 5 C 73.335900 54.770300 41.610300 0 CFG=2
M  V30 6 C 73.434200 55.711700 42.821900 0
M  V30 7 H 76.855600 57.248600 44.125600 0
M  V30 8 H 76.746700 58.057800 42.592900 0
M  V30 9 H 75.344400 58.046600 43.726200 0
M  V30 10 H 74.222800 57.521300 41.783000 0
M  V30 11 H 75.396400 54.938100 40.854400 0
M  V30 12 H 74.206700 55.961200 39.967700 0
M  V30 13 H 72.471800 55.044800 41.013300 0
M  V30 14 H 72.533200 56.278700 43.050400 0
M  V30 15 H 73.849300 55.264500 43.722600 0
M  V30 16 R 73.356700 53.250100 41.752900 0
M  V30 END ATOM
M  V30 BEGIN BOND
M  V30 1 1 2 1
M  V30 2 1 3 2
M  V30 3 1 4 3
M  V30 4 1 5 4
M  V30 5 1 6 3
M  V30 6 1 6 5
M  V30 7 1 7 1
M  V30 8 1 8 1
M  V30 9 1 9 1
M  V30 10 1 3 10 CFG=3
M  V30 11 1 11 4
M  V30 12 1 12 4
M  V30 13 1 5 13 CFG=3
M  V30 14 1 14 6
M  V30 15 1 15 6
M  V30 16 1 16 5
M  V30 END BOND
M  V30 END CTAB
M  END
$$$$
R-group 600 (12652-1)
     RDKit          3D

  0  0  0  0  0  0  0  0  0  0999 V3000
M  V30 BEGIN CTAB
M  V30 COUNTS 14 14 0 0 1
M  V30 BEGIN ATOM
M  V30 1 C 72.911700 54.473000 42.002500 0
M  V30 2 C 74.040500 55.416700 42.081600 0
M  V30 3 N 74.613800 55.997500 41.034000 0
M  V30 4 C 75.698400 56.639700 41.572500 0
M  V30 5 C 76.749500 57.270900 40.746700 0
M  V30 6 C 75.672800 56.460500 42.923100 0
M  V30 7 O 74.643300 55.645200 43.277900 0
M  V30 8 H 72.264300 54.850900 41.209500 0
M  V30 9 H 72.342700 54.498800 42.924800 0
M  V30 10 H 77.547000 57.658300 41.372900 0
M  V30 11 H 77.208300 56.516300 40.124800 0
M  V30 12 H 76.379700 58.055600 40.096700 0
M  V30 13 H 76.325500 56.781400 43.720300 0
M  V30 14 R 73.357800 53.050700 41.652800 0
M  V30 END ATOM
M  V30 BEGIN BOND
M  V30 1 1 2 1
M  V30 2 2 3 2
M  V30 3 1 4 3
M  V30 4 1 5 4
M  V30 5 2 6 4
M  V30 6 1 7 2
M  V30 7 1 7 6
M  V30 8 1 8 1
M  V30 9 1 9 1
M  V30 10 1 10 5
M  V30 11 1 11 5
M  V30 12 1 12 5
M  V30 13 1 13 6
M  V30 14 1 14 1
M  V30 END BOND
M  V30 END CTAB
M  END
$$$$
R-group 601 (576-1)
     RDKit          3D

  0  0  0  0  0  0  0  0  0  0999 V3000
M  V30 BEGIN CTAB
M  V30 COUNTS 8 8 0 0 1
M  V30 BEGIN ATOM
M  V30 1 C 74.051600 54.970100 41.932300 0
M  V30 2 C 74.874200 55.554600 42.924500 0
M  V30 3 C 75.008100 56.841800 42.523000 0
M  V30 4 O 74.280200 57.071800 41.405800 0
M  V30 5 N 73.672300 55.871800 41.035800 0
M  V30 6 H 75.334500 55.109500 43.791600 0
M  V30 7 H 75.569700 57.657900 42.939400 0
M  V30 8 R 73.591400 53.532900 41.845500 0
M  V30 END ATOM
M  V30 BEGIN BOND
M  V30 1 1 2 1
M  V30 2 2 3 2
M  V30 3 1 4 3
M  V30 4 2 5 1
M  V30 5 1 5 4
M  V30 6 1 6 2
M  V30 7 1 7 3
M  V30 8 1 8 1
M  V30 END BOND
M  V30 END CTAB
M  END
$$$$
R-group 602 (1359-3)
     RDKit          3D

  0  0  0  0  0  0  0  0  0  0999 V3000
M  V30 BEGIN CTAB
M  V30 COUNTS 12 12 0 0 1
M  V30 BEGIN ATOM
M  V30 1 C 74.287500 55.400100 42.571500 0 CFG=2
M  V30 2 C 73.147300 56.165300 43.216300 0
M  V30 3 C 73.861700 56.768700 42.039300 0 CFG=2
M  V30 4 C 73.180300 57.057300 40.720600 0
M  V30 5 H 75.251200 55.441600 43.078600 0
M  V30 6 H 72.189700 55.658200 43.168400 0
M  V30 7 H 73.272200 56.722200 44.124900 0
M  V30 8 H 74.556300 57.569500 42.288300 0
M  V30 9 H 72.465400 56.289900 40.463100 0
M  V30 10 H 72.655800 58.011000 40.772100 0
M  V30 11 H 73.920900 57.116100 39.923600 0
M  V30 12 R 73.987200 54.018400 41.948400 0
M  V30 END ATOM
M  V30 BEGIN BOND
M  V30 1 1 2 1
M  V30 2 1 3 1
M  V30 3 1 3 2
M  V30 4 1 4 3
M  V30 5 1 1 5 CFG=1
M  V30 6 1 6 2
M  V30 7 1 7 2
M  V30 8 1 3 8 CFG=1
M  V30 9 1 9 4
M  V30 10 1 10 4
M  V30 11 1 11 4
M  V30 12 1 12 1
M  V30 END BOND
M  V30 END CTAB
M  END
$$$$
R-group 603 (29306-2)
     RDKit          3D

  0  0  0  0  0  0  0  0  0  0999 V3000
M  V30 BEGIN CTAB
M  V30 COUNTS 23 23 0 0 1
M  V30 BEGIN ATOM
M  V30 1 C 73.481600 54.551300 41.355900 0 CFG=1
M  V30 2 C 73.067400 55.311900 42.606700 0
M  V30 3 C 73.145600 56.842000 42.529200 0 CFG=1
M  V30 4 C 72.738200 57.427800 43.902400 0
M  V30 5 C 74.539500 57.231900 42.011300 0 CFG=1
M  V30 6 O 75.564900 56.858000 42.922900 0
M  V30 7 C 74.914300 56.530800 40.698600 0 CFG=2
M  V30 8 O 74.013600 56.858000 39.668800 0
M  V30 9 C 74.880400 55.019100 40.878100 0
M  V30 10 H 72.745600 54.794000 40.589100 0
M  V30 11 H 72.075000 54.997100 42.924000 0
M  V30 12 H 73.767500 55.014200 43.373200 0
M  V30 13 H 72.472700 57.276800 41.792300 0
M  V30 14 H 72.872000 56.647600 44.640000 0
M  V30 15 H 73.273300 58.341000 44.124600 0
M  V30 16 H 71.697000 57.657900 44.124900 0
M  V30 17 H 74.472200 58.293000 41.808300 0
M  V30 18 H 75.911000 56.843200 40.382500 0
M  V30 19 H 75.649500 54.732600 41.594300 0
M  V30 20 H 75.194100 54.575400 39.944100 0
M  V30 21 H 75.539900 57.440400 43.667100 0
M  V30 22 H 73.147900 56.583000 39.928500 0
M  V30 23 R 73.378200 53.043000 41.654800 0
M  V30 END ATOM
M  V30 BEGIN BOND
M  V30 1 1 2 1
M  V30 2 1 3 2
M  V30 3 1 4 3
M  V30 4 1 5 3
M  V30 5 1 6 5
M  V30 6 1 7 5
M  V30 7 1 8 7
M  V30 8 1 9 1
M  V30 9 1 9 7
M  V30 10 1 1 10 CFG=3
M  V30 11 1 11 2
M  V30 12 1 12 2
M  V30 13 1 3 13 CFG=3
M  V30 14 1 14 4
M  V30 15 1 15 4
M  V30 16 1 16 4
M  V30 17 1 5 17 CFG=3
M  V30 18 1 7 18 CFG=3
M  V30 19 1 19 9
M  V30 20 1 20 9
M  V30 21 1 21 6
M  V30 22 1 22 8
M  V30 23 1 23 1
M  V30 END BOND
M  V30 END CTAB
M  END
$$$$
R-group 604 (4948-2)
     RDKit          3D

  0  0  0  0  0  0  0  0  0  0999 V3000
M  V30 BEGIN CTAB
M  V30 COUNTS 20 19 0 0 1
M  V30 BEGIN ATOM
M  V30 1 C 73.339400 57.701600 39.336400 0
M  V30 2 C 74.211000 56.596100 39.875100 0
M  V30 3 C 75.012700 56.966400 41.131600 0 CFG=2
M  V30 4 C 76.429000 57.416600 40.746100 0
M  V30 5 C 75.095200 55.760400 42.073800 0
M  V30 6 C 73.754600 55.165900 42.552300 0
M  V30 7 H 72.686400 57.251800 38.583900 0
M  V30 8 H 73.909800 58.528100 38.924700 0
M  V30 9 H 72.721600 58.118100 40.144300 0
M  V30 10 H 73.540200 55.764500 40.066800 0
M  V30 11 H 74.876000 56.256100 39.064700 0
M  V30 12 H 74.520400 57.786600 41.666000 0
M  V30 13 H 76.904600 56.621500 40.158600 0
M  V30 14 H 76.476300 58.302200 40.122200 0
M  V30 15 H 77.065500 57.605200 41.608700 0
M  V30 16 H 75.685200 54.996900 41.569000 0
M  V30 17 H 75.660600 56.047900 42.964800 0
M  V30 18 H 73.779800 55.274000 43.631900 0
M  V30 19 H 72.900700 55.759300 42.264800 0
M  V30 20 R 73.510300 53.659400 42.226800 0
M  V30 END ATOM
M  V30 BEGIN BOND
M  V30 1 1 2 1
M  V30 2 1 3 2
M  V30 3 1 4 3
M  V30 4 1 5 3
M  V30 5 1 6 5
M  V30 6 1 7 1
M  V30 7 1 8 1
M  V30 8 1 9 1
M  V30 9 1 10 2
M  V30 10 1 11 2
M  V30 11 1 3 12 CFG=1
M  V30 12 1 13 4
M  V30 13 1 14 4
M  V30 14 1 15 4
M  V30 15 1 16 5
M  V30 16 1 17 5
M  V30 17 1 18 6
M  V30 18 1 19 6
M  V30 19 1 20 6
M  V30 END BOND
M  V30 END CTAB
M  END
$$$$
R-group 605 (4962-1)
     RDKit          3D

  0  0  0  0  0  0  0  0  0  0999 V3000
M  V30 BEGIN CTAB
M  V30 COUNTS 19 19 0 0 1
M  V30 BEGIN ATOM
M  V30 1 C 73.856600 55.049200 41.826100 0 CFG=2
M  V30 2 C 75.238100 55.561700 41.368500 0
M  V30 3 C 75.385200 56.971900 41.944900 0
M  V30 4 C 74.065100 57.296800 42.666900 0 CFG=1
M  V30 5 C 73.060800 58.140600 41.839300 0
M  V30 6 O 72.873600 57.657900 40.524700 0
M  V30 7 C 73.530600 55.909600 43.047200 0
M  V30 8 H 73.143200 55.362400 41.071600 0
M  V30 9 H 76.059400 54.943100 41.724500 0
M  V30 10 H 75.312100 55.607500 40.283200 0
M  V30 11 H 76.210200 56.989200 42.659400 0
M  V30 12 H 75.640400 57.670000 41.154100 0
M  V30 13 H 74.275300 57.862700 43.573100 0
M  V30 14 H 72.098400 58.197300 42.340400 0
M  V30 15 H 73.369100 59.175900 41.770000 0
M  V30 16 H 72.473800 55.916700 43.323900 0
M  V30 17 H 74.079400 55.535400 43.908300 0
M  V30 18 H 73.705100 57.660600 40.076000 0
M  V30 19 R 73.624900 53.521100 41.930700 0
M  V30 END ATOM
M  V30 BEGIN BOND
M  V30 1 1 2 1
M  V30 2 1 3 2
M  V30 3 1 4 3
M  V30 4 1 5 4
M  V30 5 1 6 5
M  V30 6 1 7 1
M  V30 7 1 7 4
M  V30 8 1 1 8 CFG=3
M  V30 9 1 9 2
M  V30 10 1 10 2
M  V30 11 1 11 3
M  V30 12 1 12 3
M  V30 13 1 4 13 CFG=1
M  V30 14 1 14 5
M  V30 15 1 15 5
M  V30 16 1 16 7
M  V30 17 1 17 7
M  V30 18 1 18 6
M  V30 19 1 19 1
M  V30 END BOND
M  V30 END CTAB
M  END
$$$$
R-group 606 (16776-2)
     RDKit          3D

  0  0  0  0  0  0  0  0  0  0999 V3000
M  V30 BEGIN CTAB
M  V30 COUNTS 18 18 0 0 1
M  V30 BEGIN ATOM
M  V30 1 O 73.637700 54.799800 41.957300 0
M  V30 2 C 74.814200 55.564300 41.678900 0 CFG=1
M  V30 3 C 74.619800 56.508200 40.475900 0
M  V30 4 C 73.320200 57.304500 40.629200 0
M  V30 5 N 73.272100 58.027800 41.895000 0
M  V30 6 C 73.611700 57.245500 43.081600 0
M  V30 7 C 74.935700 56.445700 42.916200 0
M  V30 8 F 75.169000 55.652200 43.960800 0
M  V30 9 F 75.984000 57.260300 42.803300 0
M  V30 10 H 75.697300 54.945500 41.556200 0
M  V30 11 H 75.461700 57.197400 40.400300 0
M  V30 12 H 74.610200 55.983400 39.524000 0
M  V30 13 H 72.471500 56.631000 40.526400 0
M  V30 14 H 73.245600 58.028700 39.817000 0
M  V30 15 H 72.377800 58.484100 42.013600 0
M  V30 16 H 72.785600 56.575500 43.323400 0
M  V30 17 H 73.671300 57.955500 43.895900 0
M  V30 18 R 73.600200 53.421900 41.660900 0
M  V30 END ATOM
M  V30 BEGIN BOND
M  V30 1 1 2 1
M  V30 2 1 3 2
M  V30 3 1 4 3
M  V30 4 1 5 4
M  V30 5 1 6 5
M  V30 6 1 7 2
M  V30 7 1 7 6
M  V30 8 1 8 7
M  V30 9 1 9 7
M  V30 10 1 2 10 CFG=3
M  V30 11 1 11 3
M  V30 12 1 12 3
M  V30 13 1 13 4
M  V30 14 1 14 4
M  V30 15 1 15 5
M  V30 16 1 16 6
M  V30 17 1 17 6
M  V30 18 1 18 1
M  V30 END BOND
M  V30 END CTAB
M  END
$$$$
R-group 607 (19107-1)
     RDKit          3D

  0  0  0  0  0  0  0  0  0  0999 V3000
M  V30 BEGIN CTAB
M  V30 COUNTS 12 12 0 0 1
M  V30 BEGIN ATOM
M  V30 1 C 73.795900 54.742900 41.506200 0
M  V30 2 C 73.624000 55.386000 40.247500 0
M  V30 3 C 73.672600 56.683700 40.587000 0
M  V30 4 F 73.347600 57.657900 39.731400 0
M  V30 5 N 73.902900 56.813200 41.934700 0
M  V30 6 C 73.856700 57.980600 42.772700 0
M  V30 7 N 74.065700 55.596200 42.492000 0
M  V30 8 H 73.367300 54.986600 39.278500 0
M  V30 9 H 73.678600 58.858000 42.148500 0
M  V30 10 H 73.037800 57.882800 43.485200 0
M  V30 11 H 74.792600 58.058000 43.324300 0
M  V30 12 R 73.570900 53.284800 41.788000 0
M  V30 END ATOM
M  V30 BEGIN BOND
M  V30 1 1 2 1
M  V30 2 2 3 2
M  V30 3 1 4 3
M  V30 4 1 5 3
M  V30 5 1 6 5
M  V30 6 2 7 1
M  V30 7 1 7 5
M  V30 8 1 8 2
M  V30 9 1 9 6
M  V30 10 1 10 6
M  V30 11 1 11 6
M  V30 12 1 12 1
M  V30 END BOND
M  V30 END CTAB
M  END
$$$$
R-group 608 (204-1)
     RDKit          3D

  0  0  0  0  0  0  0  0  0  0999 V3000
M  V30 BEGIN CTAB
M  V30 COUNTS 9 9 0 0 1
M  V30 BEGIN ATOM
M  V30 1 N 73.932900 54.852200 41.815600 0
M  V30 2 C 74.192400 55.654500 42.914500 0
M  V30 3 C 74.593600 56.860300 42.430800 0
M  V30 4 N 74.532300 56.858200 41.045200 0
M  V30 5 C 74.092900 55.654200 40.750300 0
M  V30 6 H 74.073500 55.314200 43.930400 0
M  V30 7 H 74.874100 57.731100 42.996300 0
M  V30 8 H 73.911900 55.370000 39.725200 0
M  V30 9 R 73.555700 53.449900 41.862800 0
M  V30 END ATOM
M  V30 BEGIN BOND
M  V30 1 1 2 1
M  V30 2 2 3 2
M  V30 3 1 4 3
M  V30 4 1 5 1
M  V30 5 2 5 4
M  V30 6 1 6 2
M  V30 7 1 7 3
M  V30 8 1 8 5
M  V30 9 1 9 1
M  V30 END BOND
M  V30 END CTAB
M  END
$$$$
R-group 609 (16395-1)
     RDKit          3D

  0  0  0  0  0  0  0  0  0  0999 V3000
M  V30 BEGIN CTAB
M  V30 COUNTS 16 16 0 0 1
M  V30 BEGIN ATOM
M  V30 1 O 73.429700 54.930600 42.497000 0
M  V30 2 C 74.032600 56.175700 42.143800 0
M  V30 3 C 75.559600 56.109700 42.224900 0
M  V30 4 C 73.346500 56.875600 40.939400 0
M  V30 5 C 72.977700 58.053600 41.838400 0
M  V30 6 C 73.334600 57.205800 43.051000 0
M  V30 7 H 76.007300 57.083100 42.023900 0
M  V30 8 H 75.885000 55.802800 43.218700 0
M  V30 9 H 75.984700 55.408000 41.509700 0
M  V30 10 H 74.037100 57.152000 40.142300 0
M  V30 11 H 72.477200 56.364000 40.524500 0
M  V30 12 H 73.673700 58.858100 41.725900 0
M  V30 13 H 71.966600 58.457900 41.792800 0
M  V30 14 H 72.472400 56.807100 43.585900 0
M  V30 15 H 74.008700 57.727700 43.724400 0
M  V30 16 R 73.643100 53.723100 41.763200 0
M  V30 END ATOM
M  V30 BEGIN BOND
M  V30 1 1 2 1
M  V30 2 1 3 2
M  V30 3 1 4 2
M  V30 4 1 5 4
M  V30 5 1 6 2
M  V30 6 1 6 5
M  V30 7 1 7 3
M  V30 8 1 8 3
M  V30 9 1 9 3
M  V30 10 1 10 4
M  V30 11 1 11 4
M  V30 12 1 12 5
M  V30 13 1 13 5
M  V30 14 1 14 6
M  V30 15 1 15 6
M  V30 16 1 16 1
M  V30 END BOND
M  V30 END CTAB
M  END
$$$$
R-group 610 (20061-1)
     RDKit          3D

  0  0  0  0  0  0  0  0  0  0999 V3000
M  V30 BEGIN CTAB
M  V30 COUNTS 15 15 0 0 1
M  V30 BEGIN ATOM
M  V30 1 C 73.837900 54.917600 41.498400 0 CFG=2
M  V30 2 C 73.671200 55.910400 42.654300 0
M  V30 3 C 73.445500 57.273900 41.983600 0
M  V30 4 C 73.060500 56.982100 40.523500 0 CFG=1
M  V30 5 F 74.076600 57.258000 39.724500 0
M  V30 6 C 72.918900 55.480700 40.400300 0
M  V30 7 H 74.863900 55.014400 41.138200 0
M  V30 8 H 72.794400 55.658000 43.251000 0
M  V30 9 H 74.531000 55.914900 43.324700 0
M  V30 10 H 74.352800 57.876100 42.020100 0
M  V30 11 H 72.668300 57.837400 42.499500 0
M  V30 12 H 72.192900 57.536000 40.166300 0
M  V30 13 H 73.206000 55.147800 39.401900 0
M  V30 14 H 71.885000 55.169800 40.524700 0
M  V30 15 R 73.567900 53.432100 41.836200 0
M  V30 END ATOM
M  V30 BEGIN BOND
M  V30 1 1 2 1
M  V30 2 1 3 2
M  V30 3 1 4 3
M  V30 4 1 5 4
M  V30 5 1 6 1
M  V30 6 1 6 4
M  V30 7 1 1 7 CFG=3
M  V30 8 1 8 2
M  V30 9 1 9 2
M  V30 10 1 10 3
M  V30 11 1 11 3
M  V30 12 1 4 12 CFG=3
M  V30 13 1 13 6
M  V30 14 1 14 6
M  V30 15 1 15 1
M  V30 END BOND
M  V30 END CTAB
M  END
$$$$
R-group 611 (10774-1)
     RDKit          3D

  0  0  0  0  0  0  0  0  0  0999 V3000
M  V30 BEGIN CTAB
M  V30 COUNTS 24 24 0 0 1
M  V30 BEGIN ATOM
M  V30 1 C 74.080700 54.906400 42.002100 0 CFG=2
M  V30 2 C 73.620100 55.744500 43.217200 0
M  V30 3 C 73.931200 57.242700 43.124100 0
M  V30 4 C 73.534900 57.812200 41.771700 0
M  V30 5 C 74.130800 57.020900 40.608100 0
M  V30 6 C 75.679600 57.071700 40.537200 0
M  V30 7 C 73.537300 57.478500 39.298100 0
M  V30 8 C 73.629400 55.596600 40.717100 0
M  V30 9 H 75.170400 54.909200 41.988800 0
M  V30 10 H 72.537800 55.657400 43.324700 0
M  V30 11 H 74.082300 55.360800 44.124800 0
M  V30 12 H 73.361300 57.777100 43.883700 0
M  V30 13 H 74.986400 57.425600 43.324300 0
M  V30 14 H 73.777800 58.858100 41.724800 0
M  V30 15 H 72.458800 57.788300 41.692500 0
M  V30 16 H 76.073300 58.057900 40.329400 0
M  V30 17 H 76.167500 56.745900 41.454000 0
M  V30 18 H 76.041700 56.441500 39.729000 0
M  V30 19 H 73.672400 58.540900 39.106300 0
M  V30 20 H 73.983600 56.869000 38.505200 0
M  V30 21 H 72.474800 57.258000 39.248200 0
M  V30 22 H 73.980400 55.100900 39.824800 0
M  V30 23 H 72.545000 55.551200 40.625500 0
M  V30 24 R 73.632800 53.422400 42.065700 0
M  V30 END ATOM
M  V30 BEGIN BOND
M  V30 1 1 2 1
M  V30 2 1 3 2
M  V30 3 1 4 3
M  V30 4 1 5 4
M  V30 5 1 6 5
M  V30 6 1 7 5
M  V30 7 1 8 1
M  V30 8 1 8 5
M  V30 9 1 1 9 CFG=3
M  V30 10 1 10 2
M  V30 11 1 11 2
M  V30 12 1 12 3
M  V30 13 1 13 3
M  V30 14 1 14 4
M  V30 15 1 15 4
M  V30 16 1 16 6
M  V30 17 1 17 6
M  V30 18 1 18 6
M  V30 19 1 19 7
M  V30 20 1 20 7
M  V30 21 1 21 7
M  V30 22 1 22 8
M  V30 23 1 23 8
M  V30 24 1 24 1
M  V30 END BOND
M  V30 END CTAB
M  END
$$$$
R-group 612 (42427-2)
     RDKit          3D

  0  0  0  0  0  0  0  0  0  0999 V3000
M  V30 BEGIN CTAB
M  V30 COUNTS 17 18 0 0 1
M  V30 BEGIN ATOM
M  V30 1 O 73.787100 54.825300 41.639500 0
M  V30 2 C 73.703400 55.557600 42.841700 0 CFG=1
M  V30 3 C 75.030200 55.391100 43.626100 0
M  V30 4 C 75.816000 56.626600 43.409000 0 CFG=1
M  V30 5 C 76.065100 57.258200 42.079900 0
M  V30 6 C 74.866700 57.656200 42.939700 0 CFG=1
M  V30 7 C 73.539800 57.059000 42.592500 0
M  V30 8 H 72.785400 55.259000 43.320100 0
M  V30 9 H 74.844100 55.257100 44.691500 0
M  V30 10 H 75.672600 54.595300 43.275400 0
M  V30 11 H 76.562400 56.870300 44.144400 0
M  V30 12 H 75.887500 56.657300 41.190300 0
M  V30 13 H 76.872300 57.982300 41.995800 0
M  V30 14 H 74.840000 58.436900 43.711600 0
M  V30 15 H 73.264100 57.289400 41.562300 0
M  V30 16 H 72.786600 57.488500 43.251800 0
M  V30 17 R 73.445200 53.441100 41.737600 0
M  V30 END ATOM
M  V30 BEGIN BOND
M  V30 1 1 2 1
M  V30 2 1 3 2
M  V30 3 1 4 3
M  V30 4 1 5 4
M  V30 5 1 6 4
M  V30 6 1 6 5
M  V30 7 1 7 2
M  V30 8 1 7 6
M  V30 9 1 2 8 CFG=1
M  V30 10 1 9 3
M  V30 11 1 10 3
M  V30 12 1 4 11 CFG=1
M  V30 13 1 12 5
M  V30 14 1 13 5
M  V30 15 1 6 14 CFG=1
M  V30 16 1 15 7
M  V30 17 1 16 7
M  V30 18 1 17 1
M  V30 END BOND
M  V30 END CTAB
M  END
$$$$
R-group 613 (7190-2)
     RDKit          3D

  0  0  0  0  0  0  0  0  0  0999 V3000
M  V30 BEGIN CTAB
M  V30 COUNTS 14 14 0 0 1
M  V30 BEGIN ATOM
M  V30 1 O 73.679400 54.945800 42.155400 0
M  V30 2 C 74.951800 55.563400 41.996100 0
M  V30 3 C 74.751500 56.875400 41.254100 0 CFG=2
M  V30 4 C 73.493200 57.710700 41.472500 0
M  V30 5 C 73.207800 57.428200 40.000500 0
M  V30 6 O 74.376200 56.578400 39.884900 0
M  V30 7 H 75.369100 55.743200 42.987000 0
M  V30 8 H 75.672500 54.943200 41.467200 0
M  V30 9 H 75.646900 57.500700 41.268700 0
M  V30 10 H 72.778800 57.262100 42.159200 0
M  V30 11 H 73.673300 58.755100 41.723300 0
M  V30 12 H 72.279700 56.876600 39.833900 0
M  V30 13 H 73.274600 58.298300 39.344700 0
M  V30 14 R 73.549300 53.547100 41.925400 0
M  V30 END ATOM
M  V30 BEGIN BOND
M  V30 1 1 2 1
M  V30 2 1 3 2
M  V30 3 1 4 3
M  V30 4 1 5 4
M  V30 5 1 6 3
M  V30 6 1 6 5
M  V30 7 1 7 2
M  V30 8 1 8 2
M  V30 9 1 3 9 CFG=3
M  V30 10 1 10 4
M  V30 11 1 11 4
M  V30 12 1 12 5
M  V30 13 1 13 5
M  V30 14 1 14 1
M  V30 END BOND
M  V30 END CTAB
M  END
$$$$
R-group 614 (2330-2)
     RDKit          3D

  0  0  0  0  0  0  0  0  0  0999 V3000
M  V30 BEGIN CTAB
M  V30 COUNTS 19 19 0 0 1
M  V30 BEGIN ATOM
M  V30 1 C 73.858100 55.011300 42.185300 0
M  V30 2 C 74.735200 55.872600 41.235900 0 CFG=2
M  V30 3 C 74.893600 57.259200 41.866800 0
M  V30 4 C 73.548500 58.022200 41.830200 0
M  V30 5 C 72.875700 58.004600 40.445400 0
M  V30 6 O 72.872400 56.697700 39.895200 0
M  V30 7 C 74.171400 56.137900 39.810800 0
M  V30 8 H 72.872300 55.435800 42.185000 0
M  V30 9 H 74.196400 55.173300 43.209100 0
M  V30 10 H 75.722500 55.416600 41.160400 0
M  V30 11 H 75.260300 57.189600 42.891700 0
M  V30 12 H 75.661100 57.807100 41.323100 0
M  V30 13 H 72.871800 57.598800 42.570100 0
M  V30 14 H 73.672200 59.052400 42.124700 0
M  V30 15 H 71.859200 58.381200 40.525100 0
M  V30 16 H 73.342500 58.669800 39.724600 0
M  V30 17 H 74.829200 56.816300 39.264500 0
M  V30 18 H 74.099600 55.265300 39.175900 0
M  V30 19 R 73.680400 53.493600 41.968800 0
M  V30 END ATOM
M  V30 BEGIN BOND
M  V30 1 1 2 1
M  V30 2 1 3 2
M  V30 3 1 4 3
M  V30 4 1 5 4
M  V30 5 1 6 5
M  V30 6 1 7 2
M  V30 7 1 7 6
M  V30 8 1 8 1
M  V30 9 1 9 1
M  V30 10 1 2 10 CFG=3
M  V30 11 1 11 3
M  V30 12 1 12 3
M  V30 13 1 13 4
M  V30 14 1 14 4
M  V30 15 1 15 5
M  V30 16 1 16 5
M  V30 17 1 17 7
M  V30 18 1 18 7
M  V30 19 1 19 1
M  V30 END BOND
M  V30 END CTAB
M  END
$$$$
R-group 615 (37893-1)
     RDKit          3D

  0  0  0  0  0  0  0  0  0  0999 V3000
M  V30 BEGIN CTAB
M  V30 COUNTS 22 22 0 0 1
M  V30 BEGIN ATOM
M  V30 1 C 73.379400 54.623900 41.745800 0
M  V30 2 C 74.590000 55.213100 41.014500 0
M  V30 3 C 74.612500 56.739200 40.920700 0 CFG=2
M  V30 4 C 73.496200 57.261400 39.993100 0
M  V30 5 C 76.025700 57.178600 40.491700 0
M  V30 6 C 76.678500 57.657700 41.757500 0
M  V30 7 C 75.710500 57.255400 42.880300 0
M  V30 8 O 74.448400 57.257800 42.230600 0
M  V30 9 H 72.472500 54.894700 41.223400 0
M  V30 10 H 73.309300 55.030600 42.754700 0
M  V30 11 H 75.503800 54.848000 41.488100 0
M  V30 12 H 74.621100 54.881700 39.989300 0
M  V30 13 H 73.609400 56.879800 38.975700 0
M  V30 14 H 72.509900 56.965600 40.345500 0
M  V30 15 H 73.476500 58.347200 39.928900 0
M  V30 16 H 76.598600 56.325900 40.128800 0
M  V30 17 H 76.072000 57.951000 39.724300 0
M  V30 18 H 77.672300 57.258200 41.834300 0
M  V30 19 H 76.872200 58.711700 41.689400 0
M  V30 20 H 75.939400 56.258400 43.265100 0
M  V30 21 H 75.673000 57.940800 43.725900 0
M  V30 22 R 73.362300 53.100000 41.802700 0
M  V30 END ATOM
M  V30 BEGIN BOND
M  V30 1 1 2 1
M  V30 2 1 3 2 CFG=1
M  V30 3 1 4 3
M  V30 4 1 5 3
M  V30 5 1 6 5
M  V30 6 1 7 6
M  V30 7 1 8 3
M  V30 8 1 8 7
M  V30 9 1 9 1
M  V30 10 1 10 1
M  V30 11 1 11 2
M  V30 12 1 12 2
M  V30 13 1 13 4
M  V30 14 1 14 4
M  V30 15 1 15 4
M  V30 16 1 16 5
M  V30 17 1 17 5
M  V30 18 1 18 6
M  V30 19 1 19 6
M  V30 20 1 20 7
M  V30 21 1 21 7
M  V30 22 1 22 1
M  V30 END BOND
M  V30 END CTAB
M  END
$$$$
R-group 616 (20198-1)
     RDKit          3D

  0  0  0  0  0  0  0  0  0  0999 V3000
M  V30 BEGIN CTAB
M  V30 COUNTS 15 14 0 0 1
M  V30 BEGIN ATOM
M  V30 1 O 73.751100 54.905700 42.124600 0
M  V30 2 C 74.747000 55.484500 41.297600 0
M  V30 3 C 75.040900 56.912300 41.725000 0
M  V30 4 C 76.071700 57.511100 40.758100 0
M  V30 5 C 73.733400 57.724800 41.805600 0
M  V30 6 F 75.613600 56.848500 42.924600 0
M  V30 7 H 74.387300 55.525500 40.269400 0
M  V30 8 H 75.668900 54.898800 41.316500 0
M  V30 9 H 75.646900 57.657200 39.765200 0
M  V30 10 H 76.908800 56.837900 40.631900 0
M  V30 11 H 76.472600 58.456800 41.108800 0
M  V30 12 H 73.231600 57.762200 40.836800 0
M  V30 13 H 73.038500 57.281200 42.520300 0
M  V30 14 H 73.890600 58.747500 42.125300 0
M  V30 15 R 73.536500 53.511500 41.953000 0
M  V30 END ATOM
M  V30 BEGIN BOND
M  V30 1 1 2 1
M  V30 2 1 3 2
M  V30 3 1 4 3
M  V30 4 1 5 3
M  V30 5 1 6 3
M  V30 6 1 7 2
M  V30 7 1 8 2
M  V30 8 1 9 4
M  V30 9 1 10 4
M  V30 10 1 11 4
M  V30 11 1 12 5
M  V30 12 1 13 5
M  V30 13 1 14 5
M  V30 14 1 15 1
M  V30 END BOND
M  V30 END CTAB
M  END
$$$$
R-group 617 (16172-1)
     RDKit          3D

  0  0  0  0  0  0  0  0  0  0999 V3000
M  V30 BEGIN CTAB
M  V30 COUNTS 16 16 0 0 1
M  V30 BEGIN ATOM
M  V30 1 O 73.674800 54.727200 41.869200 0
M  V30 2 C 75.013200 55.184500 41.688300 0
M  V30 3 C 75.016700 56.636900 41.990400 0 CFG=2
M  V30 4 C 75.427400 57.160200 43.324800 0
M  V30 5 C 73.954500 57.157100 42.925900 0 CFG=1
M  V30 6 C 73.090700 58.208400 42.285600 0
M  V30 7 H 75.673700 54.715600 42.406600 0
M  V30 8 H 75.425300 55.036700 40.692700 0
M  V30 9 H 75.283900 57.262100 41.142800 0
M  V30 10 H 75.738600 56.414500 44.049500 0
M  V30 11 H 76.044200 58.042100 43.326300 0
M  V30 12 H 73.366400 56.439600 43.503700 0
M  V30 13 H 73.672300 58.914500 41.724400 0
M  V30 14 H 72.461900 57.714900 41.552600 0
M  V30 15 H 72.470700 58.722800 43.012600 0
M  V30 16 R 73.437800 53.336000 41.816200 0
M  V30 END ATOM
M  V30 BEGIN BOND
M  V30 1 1 2 1
M  V30 2 1 3 2
M  V30 3 1 4 3
M  V30 4 1 5 3
M  V30 5 1 5 4
M  V30 6 1 6 5
M  V30 7 1 7 2
M  V30 8 1 8 2
M  V30 9 1 3 9 CFG=3
M  V30 10 1 10 4
M  V30 11 1 11 4
M  V30 12 1 5 12 CFG=1
M  V30 13 1 13 6
M  V30 14 1 14 6
M  V30 15 1 15 6
M  V30 16 1 16 1
M  V30 END BOND
M  V30 END CTAB
M  END
$$$$
R-group 618 (13933-1)
     RDKit          3D

  0  0  0  0  0  0  0  0  0  0999 V3000
M  V30 BEGIN CTAB
M  V30 COUNTS 7 7 0 0 1
M  V30 BEGIN ATOM
M  V30 1 C 74.188800 54.987800 41.933600 0
M  V30 2 N 73.672200 56.019900 42.612000 0
M  V30 3 C 74.339900 57.128700 42.376800 0
M  V30 4 S 75.682300 56.857700 41.324900 0
M  V30 5 N 75.270200 55.257400 41.183900 0
M  V30 6 H 74.100100 58.084100 42.819200 0
M  V30 7 R 73.631200 53.588600 42.024700 0
M  V30 END ATOM
M  V30 BEGIN BOND
M  V30 1 1 2 1
M  V30 2 2 3 2
M  V30 3 1 4 3
M  V30 4 2 5 1
M  V30 5 1 5 4
M  V30 6 1 6 3
M  V30 7 1 7 1
M  V30 END BOND
M  V30 END CTAB
M  END
$$$$
R-group 619 (2683-2)
     RDKit          3D

  0  0  0  0  0  0  0  0  0  0999 V3000
M  V30 BEGIN CTAB
M  V30 COUNTS 22 22 0 0 1
M  V30 BEGIN ATOM
M  V30 1 C 73.302000 57.509400 39.326000 0
M  V30 2 C 73.848400 56.215000 39.835900 0
M  V30 3 O 73.648300 55.217800 39.154900 0
M  V30 4 N 74.417900 56.205200 41.051300 0
M  V30 5 C 75.109300 57.328200 41.647200 0
M  V30 6 C 75.862300 56.783700 42.850400 0
M  V30 7 C 75.133500 55.501000 43.206900 0
M  V30 8 C 74.551100 55.022500 41.873300 0 CFG=1
M  V30 9 C 73.194100 54.291900 42.022700 0
M  V30 10 H 74.144100 58.057900 38.924700 0
M  V30 11 H 72.583900 57.219400 38.551700 0
M  V30 12 H 72.821400 58.078000 40.126300 0
M  V30 13 H 74.376200 58.064300 41.961800 0
M  V30 14 H 75.808200 57.757600 40.927700 0
M  V30 15 H 75.935600 57.487400 43.680200 0
M  V30 16 H 76.870500 56.529500 42.524600 0
M  V30 17 H 74.323300 55.657900 43.917100 0
M  V30 18 H 75.803100 54.790100 43.686400 0
M  V30 19 H 75.313900 54.425900 41.376800 0
M  V30 20 H 72.463000 54.586200 41.277900 0
M  V30 21 H 72.681800 54.593100 42.921500 0
M  V30 22 R 73.311500 52.779900 41.940300 0
M  V30 END ATOM
M  V30 BEGIN BOND
M  V30 1 1 2 1
M  V30 2 2 3 2
M  V30 3 1 4 2
M  V30 4 1 5 4
M  V30 5 1 6 5
M  V30 6 1 7 6
M  V30 7 1 8 4
M  V30 8 1 8 7
M  V30 9 1 9 8
M  V30 10 1 10 1
M  V30 11 1 11 1
M  V30 12 1 12 1
M  V30 13 1 13 5
M  V30 14 1 14 5
M  V30 15 1 15 6
M  V30 16 1 16 6
M  V30 17 1 17 7
M  V30 18 1 18 7
M  V30 19 1 8 19 CFG=3
M  V30 20 1 20 9
M  V30 21 1 21 9
M  V30 22 1 22 9
M  V30 END BOND
M  V30 END CTAB
M  END
$$$$
R-group 620 (29195-1)
     RDKit          3D

  0  0  0  0  0  0  0  0  0  0999 V3000
M  V30 BEGIN CTAB
M  V30 COUNTS 19 19 0 0 1
M  V30 BEGIN ATOM
M  V30 1 C 73.402500 54.529000 41.881300 0
M  V30 2 C 74.661900 55.193100 41.265200 0
M  V30 3 C 74.945900 56.600700 41.731300 0
M  V30 4 O 76.048400 57.026500 40.950300 0
M  V30 5 C 73.724000 57.510600 41.751200 0
M  V30 6 C 73.704400 57.471900 43.280600 0
M  V30 7 C 75.123900 56.883700 43.222200 0
M  V30 8 H 72.481500 54.859800 41.404700 0
M  V30 9 H 73.315800 54.787100 42.925300 0
M  V30 10 H 75.550200 54.580900 41.431700 0
M  V30 11 H 74.512800 55.243200 40.191600 0
M  V30 12 H 73.947000 58.458000 41.326500 0
M  V30 13 H 72.844100 57.102900 41.271800 0
M  V30 14 H 73.624600 58.458000 43.723100 0
M  V30 15 H 72.960800 56.796700 43.698600 0
M  V30 16 H 75.279400 55.970200 43.794500 0
M  V30 17 H 75.900500 57.622900 43.434200 0
M  V30 18 H 76.760800 56.431200 41.131800 0
M  V30 19 R 73.384400 53.021900 41.778600 0
M  V30 END ATOM
M  V30 BEGIN BOND
M  V30 1 1 2 1
M  V30 2 1 3 2
M  V30 3 1 4 3
M  V30 4 1 5 3
M  V30 5 1 6 5
M  V30 6 1 7 3
M  V30 7 1 7 6
M  V30 8 1 8 1
M  V30 9 1 9 1
M  V30 10 1 10 2
M  V30 11 1 11 2
M  V30 12 1 12 5
M  V30 13 1 13 5
M  V30 14 1 14 6
M  V30 15 1 15 6
M  V30 16 1 16 7
M  V30 17 1 17 7
M  V30 18 1 18 4
M  V30 19 1 19 1
M  V30 END BOND
M  V30 END CTAB
M  END
$$$$
R-group 621 (14884-2)
     RDKit          3D

  0  0  0  0  0  0  0  0  0  0999 V3000
M  V30 BEGIN CTAB
M  V30 COUNTS 18 18 0 0 1
M  V30 BEGIN ATOM
M  V30 1 N 73.672400 54.850900 41.549300 0
M  V30 2 C 74.721900 55.321900 40.664800 0
M  V30 3 C 74.801000 56.810900 40.910400 0
M  V30 4 C 74.457600 56.926800 42.400700 0 CFG=2
M  V30 5 C 73.442000 58.049800 42.666900 0
M  V30 6 O 75.672000 57.016600 43.123100 0
M  V30 7 C 73.854300 55.579900 42.785000 0
M  V30 8 H 75.676500 54.841400 40.887000 0
M  V30 9 H 74.467800 55.163700 39.622700 0
M  V30 10 H 75.764200 57.240200 40.633600 0
M  V30 11 H 74.040700 57.305900 40.305400 0
M  V30 12 H 72.473800 57.753500 42.277300 0
M  V30 13 H 73.309800 58.247600 43.726600 0
M  V30 14 H 73.672000 58.952300 42.124400 0
M  V30 15 H 72.910200 55.671100 43.320900 0
M  V30 16 H 74.536900 55.082800 43.466000 0
M  V30 17 H 76.228600 56.315900 42.822100 0
M  V30 18 R 73.506300 53.401700 41.691800 0
M  V30 END ATOM
M  V30 BEGIN BOND
M  V30 1 1 2 1
M  V30 2 1 3 2
M  V30 3 1 4 3
M  V30 4 1 5 4
M  V30 5 1 4 6 CFG=1
M  V30 6 1 7 1
M  V30 7 1 7 4
M  V30 8 1 8 2
M  V30 9 1 9 2
M  V30 10 1 10 3
M  V30 11 1 11 3
M  V30 12 1 12 5
M  V30 13 1 13 5
M  V30 14 1 14 5
M  V30 15 1 15 7
M  V30 16 1 16 7
M  V30 17 1 17 6
M  V30 18 1 18 1
M  V30 END BOND
M  V30 END CTAB
M  END
$$$$
R-group 622 (781-1)
     RDKit          3D

  0  0  0  0  0  0  0  0  0  0999 V3000
M  V30 BEGIN CTAB
M  V30 COUNTS 11 11 0 0 1
M  V30 BEGIN ATOM
M  V30 1 C 74.151400 55.078200 41.877200 0
M  V30 2 C 73.672500 56.176800 42.525700 0
M  V30 3 N 74.428000 57.257800 42.135500 0
M  V30 4 C 75.360700 56.770600 41.323500 0
M  V30 5 C 76.448400 57.525100 40.628700 0
M  V30 6 O 75.248700 55.433400 41.135600 0
M  V30 7 H 72.843400 56.273100 43.211500 0
M  V30 8 H 76.872400 58.258700 41.309700 0
M  V30 9 H 77.230800 56.858800 40.280400 0
M  V30 10 H 76.072300 58.045800 39.750400 0
M  V30 11 R 73.701900 53.659600 41.856200 0
M  V30 END ATOM
M  V30 BEGIN BOND
M  V30 1 2 2 1
M  V30 2 1 3 2
M  V30 3 2 4 3
M  V30 4 1 5 4
M  V30 5 1 6 1
M  V30 6 1 6 4
M  V30 7 1 7 2
M  V30 8 1 8 5
M  V30 9 1 9 5
M  V30 10 1 10 5
M  V30 11 1 11 1
M  V30 END BOND
M  V30 END CTAB
M  END
$$$$
R-group 623 (1365-1)
     RDKit          3D

  0  0  0  0  0  0  0  0  0  0999 V3000
M  V30 BEGIN CTAB
M  V30 COUNTS 8 8 0 0 1
M  V30 BEGIN ATOM
M  V30 1 C 74.072500 54.857900 42.075400 0
M  V30 2 C 74.872100 55.577500 42.924300 0
M  V30 3 N 74.988300 56.857700 42.421800 0
M  V30 4 C 74.239900 56.857700 41.325600 0
M  V30 5 O 73.672200 55.665100 41.049600 0
M  V30 6 H 75.379000 55.279600 43.829900 0
M  V30 7 H 74.072300 57.694600 40.672500 0
M  V30 8 R 73.623800 53.432100 42.045700 0
M  V30 END ATOM
M  V30 BEGIN BOND
M  V30 1 2 2 1
M  V30 2 1 3 2
M  V30 3 2 4 3
M  V30 4 1 5 1
M  V30 5 1 5 4
M  V30 6 1 6 2
M  V30 7 1 7 4
M  V30 8 1 8 1
M  V30 END BOND
M  V30 END CTAB
M  END
$$$$
R-group 624 (4812-3)
     RDKit          3D

  0  0  0  0  0  0  0  0  0  0999 V3000
M  V30 BEGIN CTAB
M  V30 COUNTS 21 21 0 0 1
M  V30 BEGIN ATOM
M  V30 1 C 73.649600 54.863900 41.786400 0 CFG=2
M  V30 2 C 72.884500 55.645300 40.695000 0
M  V30 3 C 72.873100 57.120800 41.130300 0
M  V30 4 C 74.255800 57.658100 41.324800 0
M  V30 5 C 75.089300 56.850200 42.317100 0
M  V30 6 C 75.117500 55.385600 41.874500 0 CFG=2
M  V30 7 C 75.903200 55.260300 40.560800 0
M  V30 8 H 73.202200 55.158800 42.738100 0
M  V30 9 H 73.341000 55.540800 39.714100 0
M  V30 10 H 71.881100 55.257900 40.524400 0
M  V30 11 H 72.287800 57.745000 40.456600 0
M  V30 12 H 72.518800 57.258100 42.145300 0
M  V30 13 H 74.741000 57.658000 40.354300 0
M  V30 14 H 74.072300 58.652400 41.724800 0
M  V30 15 H 74.664800 56.934800 43.318500 0
M  V30 16 H 76.099200 57.258200 42.383400 0
M  V30 17 H 75.670500 54.863700 42.651800 0
M  V30 18 H 75.419200 55.751700 39.725000 0
M  V30 19 H 76.872300 55.725000 40.653100 0
M  V30 20 H 76.071900 54.234100 40.274700 0
M  V30 21 R 73.413600 53.335600 41.789700 0
M  V30 END ATOM
M  V30 BEGIN BOND
M  V30 1 1 2 1
M  V30 2 1 3 2
M  V30 3 1 4 3
M  V30 4 1 5 4
M  V30 5 1 6 1
M  V30 6 1 6 5
M  V30 7 1 7 6
M  V30 8 1 1 8 CFG=1
M  V30 9 1 9 2
M  V30 10 1 10 2
M  V30 11 1 11 3
M  V30 12 1 12 3
M  V30 13 1 13 4
M  V30 14 1 14 4
M  V30 15 1 15 5
M  V30 16 1 16 5
M  V30 17 1 6 17 CFG=1
M  V30 18 1 18 7
M  V30 19 1 19 7
M  V30 20 1 20 7
M  V30 21 1 21 1
M  V30 END BOND
M  V30 END CTAB
M  END
$$$$
R-group 625 (42838-2)
     RDKit          3D

  0  0  0  0  0  0  0  0  0  0999 V3000
M  V30 BEGIN CTAB
M  V30 COUNTS 15 15 0 0 1
M  V30 BEGIN ATOM
M  V30 1 C 74.295600 55.419400 42.727400 0 CFG=2
M  V30 2 C 73.270900 56.537900 42.928000 0
M  V30 3 C 73.273600 57.381700 41.624800 0
M  V30 4 C 74.457000 56.885700 40.794900 0
M  V30 5 C 75.285400 56.088300 41.774600 0
M  V30 6 F 76.048700 56.936400 42.468300 0
M  V30 7 F 76.072300 55.255000 41.136000 0
M  V30 8 H 74.793100 55.310700 43.690900 0
M  V30 9 H 72.323300 56.163200 43.319700 0
M  V30 10 H 73.633100 57.190800 43.723600 0
M  V30 11 H 73.376800 58.442200 41.858600 0
M  V30 12 H 72.390300 57.270300 41.007500 0
M  V30 13 H 75.056700 57.658000 40.329700 0
M  V30 14 H 74.100700 56.256200 39.981900 0
M  V30 15 R 73.727000 54.005500 42.317500 0
M  V30 END ATOM
M  V30 BEGIN BOND
M  V30 1 1 2 1
M  V30 2 1 3 2
M  V30 3 1 4 3
M  V30 4 1 5 1
M  V30 5 1 5 4
M  V30 6 1 6 5
M  V30 7 1 7 5
M  V30 8 1 1 8 CFG=1
M  V30 9 1 9 2
M  V30 10 1 10 2
M  V30 11 1 11 3
M  V30 12 1 12 3
M  V30 13 1 13 4
M  V30 14 1 14 4
M  V30 15 1 15 1
M  V30 END BOND
M  V30 END CTAB
M  END
$$$$
R-group 626 (22-1)
     RDKit          3D

  0  0  0  0  0  0  0  0  0  0999 V3000
M  V30 BEGIN CTAB
M  V30 COUNTS 11 10 0 0 1
M  V30 BEGIN ATOM
M  V30 1 C 73.128000 57.413700 41.117500 0
M  V30 2 C 73.534800 56.789200 42.462200 0
M  V30 3 C 74.492800 55.584200 42.372500 0
M  V30 4 H 72.582500 58.343800 41.281900 0
M  V30 5 H 74.000400 57.654900 40.512300 0
M  V30 6 H 72.476500 56.774300 40.525000 0
M  V30 7 H 72.659800 56.526500 43.056700 0
M  V30 8 H 74.040400 57.570800 43.031600 0
M  V30 9 H 75.040200 55.583800 43.315700 0
M  V30 10 H 75.257300 55.766500 41.619500 0
M  V30 11 R 73.843900 54.181400 42.183900 0
M  V30 END ATOM
M  V30 BEGIN BOND
M  V30 1 1 2 1
M  V30 2 1 3 2
M  V30 3 1 4 1
M  V30 4 1 5 1
M  V30 5 1 6 1
M  V30 6 1 7 2
M  V30 7 1 8 2
M  V30 8 1 9 3
M  V30 9 1 10 3
M  V30 10 1 11 3
M  V30 END BOND
M  V30 END CTAB
M  END
$$$$
R-group 627 (19437-1)
     RDKit          3D

  0  0  0  0  0  0  0  0  0  0999 V3000
M  V30 BEGIN CTAB
M  V30 COUNTS 14 14 0 0 1
M  V30 BEGIN ATOM
M  V30 1 C 75.983500 56.457600 42.464800 0
M  V30 2 O 75.272300 55.295700 42.043500 0
M  V30 3 C 73.855000 55.250000 42.020900 0
M  V30 4 C 73.412300 56.415700 41.116600 0
M  V30 5 O 73.272200 57.261700 42.300700 0
M  V30 6 C 73.165700 56.057700 43.117600 0
M  V30 7 H 77.004400 56.343900 42.124700 0
M  V30 8 H 75.650500 57.386100 42.008900 0
M  V30 9 H 75.979100 56.566400 43.549400 0
M  V30 10 H 74.186900 56.765000 40.432900 0
M  V30 11 H 72.489100 56.288700 40.538600 0
M  V30 12 H 72.132000 55.770200 43.324700 0
M  V30 13 H 73.672200 56.058000 44.069500 0
M  V30 14 R 73.490800 53.757400 41.805700 0
M  V30 END ATOM
M  V30 BEGIN BOND
M  V30 1 1 2 1
M  V30 2 1 3 2
M  V30 3 1 4 3
M  V30 4 1 5 4
M  V30 5 1 6 3
M  V30 6 1 6 5
M  V30 7 1 7 1
M  V30 8 1 8 1
M  V30 9 1 9 1
M  V30 10 1 10 4
M  V30 11 1 11 4
M  V30 12 1 12 6
M  V30 13 1 13 6
M  V30 14 1 14 3
M  V30 END BOND
M  V30 END CTAB
M  END
$$$$
R-group 628 (10319-1)
     RDKit          3D

  0  0  0  0  0  0  0  0  0  0999 V3000
M  V30 BEGIN CTAB
M  V30 COUNTS 11 10 0 0 1
M  V30 BEGIN ATOM
M  V30 1 C 75.514600 57.198100 42.247200 0
M  V30 2 C 75.291700 55.684800 42.180900 0
M  V30 3 C 73.808100 55.289300 42.033400 0
M  V30 4 F 73.272300 56.004500 41.042300 0
M  V30 5 F 73.205700 55.673700 43.157000 0
M  V30 6 H 76.569500 57.439200 42.376700 0
M  V30 7 H 75.183400 57.658500 41.318600 0
M  V30 8 H 74.964000 57.657700 43.069700 0
M  V30 9 H 75.679700 55.253200 43.101700 0
M  V30 10 H 75.885400 55.277200 41.363700 0
M  V30 11 R 73.515600 53.767600 41.814100 0
M  V30 END ATOM
M  V30 BEGIN BOND
M  V30 1 1 2 1
M  V30 2 1 3 2
M  V30 3 1 4 3
M  V30 4 1 5 3
M  V30 5 1 6 1
M  V30 6 1 7 1
M  V30 7 1 8 1
M  V30 8 1 9 2
M  V30 9 1 10 2
M  V30 10 1 11 3
M  V30 END BOND
M  V30 END CTAB
M  END
$$$$
R-group 629 (4799-1)
     RDKit          3D

  0  0  0  0  0  0  0  0  0  0999 V3000
M  V30 BEGIN CTAB
M  V30 COUNTS 22 22 0 0 1
M  V30 BEGIN ATOM
M  V30 1 O 73.680200 54.876900 41.793000 0
M  V30 2 C 73.438100 55.579200 42.984900 0
M  V30 3 C 73.966300 57.005000 42.894600 0
M  V30 4 C 75.495400 56.999900 43.086200 0
M  V30 5 C 76.204500 56.454400 41.848300 0
M  V30 6 C 75.793200 57.166100 40.569500 0
M  V30 7 C 74.271600 57.242200 40.338700 0
M  V30 8 C 73.536400 57.725300 41.603900 0
M  V30 9 H 72.389500 55.573800 43.283800 0
M  V30 10 H 74.036600 55.076300 43.731900 0
M  V30 11 H 73.520200 57.555700 43.723600 0
M  V30 12 H 75.863500 57.996900 43.325900 0
M  V30 13 H 75.775300 56.378200 43.938600 0
M  V30 14 H 77.271300 56.590100 41.980200 0
M  V30 15 H 76.042400 55.384200 41.742700 0
M  V30 16 H 76.267200 58.138700 40.603700 0
M  V30 17 H 76.232600 56.633200 39.746200 0
M  V30 18 H 74.051100 57.887000 39.494800 0
M  V30 19 H 73.871400 56.286400 39.989700 0
M  V30 20 H 72.470200 57.642800 41.452700 0
M  V30 21 H 73.672500 58.792100 41.745600 0
M  V30 22 R 73.404800 53.497700 41.781500 0
M  V30 END ATOM
M  V30 BEGIN BOND
M  V30 1 1 2 1
M  V30 2 1 3 2
M  V30 3 1 4 3
M  V30 4 1 5 4
M  V30 5 1 6 5
M  V30 6 1 7 6
M  V30 7 1 8 3
M  V30 8 1 8 7
M  V30 9 1 9 2
M  V30 10 1 10 2
M  V30 11 1 11 3
M  V30 12 1 12 4
M  V30 13 1 13 4
M  V30 14 1 14 5
M  V30 15 1 15 5
M  V30 16 1 16 6
M  V30 17 1 17 6
M  V30 18 1 18 7
M  V30 19 1 19 7
M  V30 20 1 20 8
M  V30 21 1 21 8
M  V30 22 1 22 1
M  V30 END BOND
M  V30 END CTAB
M  END
$$$$
R-group 630 (708-1)
     RDKit          3D

  0  0  0  0  0  0  0  0  0  0999 V3000
M  V30 BEGIN CTAB
M  V30 COUNTS 13 13 0 0 1
M  V30 BEGIN ATOM
M  V30 1 O 73.690100 54.995200 42.124100 0
M  V30 2 C 75.017400 55.498300 42.025500 0
M  V30 3 C 74.988300 56.852300 41.358300 0
M  V30 4 C 76.098200 57.242800 40.411900 0
M  V30 5 C 74.707100 56.966800 39.876300 0
M  V30 6 H 75.450600 55.588500 43.022200 0
M  V30 7 H 75.676300 54.847600 41.453300 0
M  V30 8 H 74.560000 57.641300 41.974000 0
M  V30 9 H 76.472300 58.263700 40.457200 0
M  V30 10 H 76.857500 56.498700 40.180500 0
M  V30 11 H 74.557700 56.052500 39.313200 0
M  V30 12 H 74.072000 57.790100 39.551200 0
M  V30 13 R 73.475500 53.595700 41.917800 0
M  V30 END ATOM
M  V30 BEGIN BOND
M  V30 1 1 2 1
M  V30 2 1 3 2
M  V30 3 1 4 3
M  V30 4 1 5 3
M  V30 5 1 5 4
M  V30 6 1 6 2
M  V30 7 1 7 2
M  V30 8 1 8 3
M  V30 9 1 9 4
M  V30 10 1 10 4
M  V30 11 1 11 5
M  V30 12 1 12 5
M  V30 13 1 13 1
M  V30 END BOND
M  V30 END CTAB
M  END
$$$$
R-group 631 (222-1)
     RDKit          3D

  0  0  0  0  0  0  0  0  0  0999 V3000
M  V30 BEGIN CTAB
M  V30 COUNTS 14 13 0 0 1
M  V30 BEGIN ATOM
M  V30 1 C 74.095700 55.422000 41.828800 0
M  V30 2 C 73.544900 56.052300 43.128700 0
M  V30 3 C 73.537900 56.237800 40.640700 0
M  V30 4 C 75.607300 55.688100 41.823200 0
M  V30 5 H 74.067500 55.655800 43.996900 0
M  V30 6 H 73.686700 57.133200 43.148800 0
M  V30 7 H 72.480000 55.864800 43.274700 0
M  V30 8 H 74.005400 55.957600 39.697200 0
M  V30 9 H 72.471600 56.110600 40.520300 0
M  V30 10 H 73.713000 57.306000 40.768800 0
M  V30 11 H 76.072200 55.259500 40.942900 0
M  V30 12 H 75.832100 56.756000 41.822400 0
M  V30 13 H 76.067200 55.274900 42.714200 0
M  V30 14 R 73.735800 53.870900 41.764300 0
M  V30 END ATOM
M  V30 BEGIN BOND
M  V30 1 1 2 1
M  V30 2 1 3 1
M  V30 3 1 4 1
M  V30 4 1 5 2
M  V30 5 1 6 2
M  V30 6 1 7 2
M  V30 7 1 8 3
M  V30 8 1 9 3
M  V30 9 1 10 3
M  V30 10 1 11 4
M  V30 11 1 12 4
M  V30 12 1 13 4
M  V30 13 1 14 1
M  V30 END BOND
M  V30 END CTAB
M  END
$$$$
R-group 632 (15105-1)
     RDKit          3D

  0  0  0  0  0  0  0  0  0  0999 V3000
M  V30 BEGIN CTAB
M  V30 COUNTS 11 10 0 0 1
M  V30 BEGIN ATOM
M  V30 1 N 73.984100 55.102900 42.524100 0
M  V30 2 C 75.014200 55.710500 41.701900 0 CFG=2
M  V30 3 C 75.619700 56.877900 42.486000 0
M  V30 4 C 74.434500 56.143200 40.425800 0
M  V30 5 N 73.965900 56.462200 39.419900 0
M  V30 6 H 73.148500 55.670600 42.549300 0
M  V30 7 H 75.801800 54.990900 41.494800 0
M  V30 8 H 76.400600 57.371500 41.904300 0
M  V30 9 H 74.863000 57.623300 42.735200 0
M  V30 10 H 76.068500 56.536900 43.419600 0
M  V30 11 R 73.656200 53.695600 42.273900 0
M  V30 END ATOM
M  V30 BEGIN BOND
M  V30 1 1 2 1
M  V30 2 1 3 2
M  V30 3 1 4 2
M  V30 4 3 5 4
M  V30 5 1 6 1
M  V30 6 1 2 7 CFG=3
M  V30 7 1 8 3
M  V30 8 1 9 3
M  V30 9 1 10 3
M  V30 10 1 11 1
M  V30 END BOND
M  V30 END CTAB
M  END
$$$$
R-group 633 (3951-1)
     RDKit          3D

  0  0  0  0  0  0  0  0  0  0999 V3000
M  V30 BEGIN CTAB
M  V30 COUNTS 13 13 0 0 1
M  V30 BEGIN ATOM
M  V30 1 O 74.034500 55.000600 41.751500 0
M  V30 2 C 74.142400 55.749000 42.951600 0
M  V30 3 C 75.529200 55.632300 43.604600 0
M  V30 4 C 75.950800 56.890400 42.836200 0
M  V30 5 C 74.471700 57.205300 42.607400 0
M  V30 6 H 73.287300 55.664900 43.616200 0
M  V30 7 H 75.546700 55.657900 44.691000 0
M  V30 8 H 76.065900 54.747700 43.324700 0
M  V30 9 H 76.472800 57.651700 43.408300 0
M  V30 10 H 76.473300 56.656500 41.907400 0
M  V30 11 H 74.227200 57.500100 41.586300 0
M  V30 12 H 74.071300 57.915900 43.329300 0
M  V30 13 R 73.563300 53.660300 41.864100 0
M  V30 END ATOM
M  V30 BEGIN BOND
M  V30 1 1 2 1
M  V30 2 1 3 2
M  V30 3 1 4 3
M  V30 4 1 5 2
M  V30 5 1 5 4
M  V30 6 1 6 2
M  V30 7 1 7 3
M  V30 8 1 8 3
M  V30 9 1 9 4
M  V30 10 1 10 4
M  V30 11 1 11 5
M  V30 12 1 12 5
M  V30 13 1 13 1
M  V30 END BOND
M  V30 END CTAB
M  END
$$$$
R-group 634 (717-1)
     RDKit          3D

  0  0  0  0  0  0  0  0  0  0999 V3000
M  V30 BEGIN CTAB
M  V30 COUNTS 9 9 0 0 1
M  V30 BEGIN ATOM
M  V30 1 C 74.502100 55.305400 41.946400 0
M  V30 2 C 73.831800 56.506400 41.313200 0
M  V30 3 C 73.890300 56.383700 42.812700 0
M  V30 4 H 75.588300 55.313200 41.864900 0
M  V30 5 H 74.476300 57.246200 40.843500 0
M  V30 6 H 72.872300 56.358800 40.826300 0
M  V30 7 H 72.961900 56.161600 43.335200 0
M  V30 8 H 74.565100 57.064300 43.324300 0
M  V30 9 R 73.895300 53.904100 41.879000 0
M  V30 END ATOM
M  V30 BEGIN BOND
M  V30 1 1 2 1
M  V30 2 1 3 1
M  V30 3 1 3 2
M  V30 4 1 4 1
M  V30 5 1 5 2
M  V30 6 1 6 2
M  V30 7 1 7 3
M  V30 8 1 8 3
M  V30 9 1 9 1
M  V30 END BOND
M  V30 END CTAB
M  END
$$$$
R-group 635 (707-1)
     RDKit          3D

  0  0  0  0  0  0  0  0  0  0999 V3000
M  V30 BEGIN CTAB
M  V30 COUNTS 17 16 0 0 1
M  V30 BEGIN ATOM
M  V30 1 C 75.894500 56.941000 41.411600 0
M  V30 2 C 75.419600 55.571900 41.839700 0
M  V30 3 C 73.880100 55.351000 41.901700 0
M  V30 4 C 73.277000 56.005300 43.162200 0
M  V30 5 C 73.163900 57.534900 43.155100 0
M  V30 6 H 76.961600 56.956200 41.221300 0
M  V30 7 H 75.370900 57.299300 40.532200 0
M  V30 8 H 75.805600 57.646100 42.233400 0
M  V30 9 H 75.862300 55.305900 42.791000 0
M  V30 10 H 75.876900 54.901500 41.119300 0
M  V30 11 H 73.426000 55.853900 41.048900 0
M  V30 12 H 72.256600 55.642600 43.311900 0
M  V30 13 H 73.833900 55.681700 44.024300 0
M  V30 14 H 72.706300 57.888500 44.077300 0
M  V30 15 H 74.139000 58.034600 43.158600 0
M  V30 16 H 72.604100 57.904700 42.299000 0
M  V30 17 R 73.495100 53.841800 41.796600 0
M  V30 END ATOM
M  V30 BEGIN BOND
M  V30 1 1 2 1
M  V30 2 1 3 2
M  V30 3 1 4 3
M  V30 4 1 5 4
M  V30 5 1 6 1
M  V30 6 1 7 1
M  V30 7 1 8 1
M  V30 8 1 9 2
M  V30 9 1 10 2
M  V30 10 1 11 3
M  V30 11 1 12 4
M  V30 12 1 13 4
M  V30 13 1 14 5
M  V30 14 1 15 5
M  V30 15 1 16 5
M  V30 16 1 17 3
M  V30 END BOND
M  V30 END CTAB
M  END
$$$$
R-group 636 (41085-1)
     RDKit          3D

  0  0  0  0  0  0  0  0  0  0999 V3000
M  V30 BEGIN CTAB
M  V30 COUNTS 8 7 0 0 1
M  V30 BEGIN ATOM
M  V30 1 C 74.485700 55.056000 41.395300 0 CFG=1
M  V30 2 F 73.808300 55.755900 40.479400 0
M  V30 3 C 74.775000 56.003300 42.553000 0
M  V30 4 F 75.272300 55.355100 43.595900 0
M  V30 5 F 75.698500 56.858200 42.139600 0
M  V30 6 F 73.672500 56.652200 42.923900 0
M  V30 7 H 75.442100 54.820600 40.926900 0
M  V30 8 R 73.752400 53.731500 41.742000 0
M  V30 END ATOM
M  V30 BEGIN BOND
M  V30 1 1 2 1
M  V30 2 1 3 1
M  V30 3 1 4 3
M  V30 4 1 5 3
M  V30 5 1 6 3
M  V30 6 1 1 7 CFG=3
M  V30 7 1 8 1
M  V30 END BOND
M  V30 END CTAB
M  END
$$$$
R-group 637 (2321-1)
     RDKit          3D

  0  0  0  0  0  0  0  0  0  0999 V3000
M  V30 BEGIN CTAB
M  V30 COUNTS 15 14 0 0 1
M  V30 BEGIN ATOM
M  V30 1 C 76.148400 56.929000 41.270300 0
M  V30 2 O 74.820200 56.857900 40.766300 0
M  V30 3 C 73.766400 56.606200 41.695800 0 CFG=2
M  V30 4 C 73.522500 57.849300 42.570000 0
M  V30 5 C 73.981100 55.329600 42.546400 0
M  V30 6 H 76.825900 57.218900 40.467300 0
M  V30 7 H 76.268000 57.656900 42.071000 0
M  V30 8 H 76.476800 55.956600 41.629000 0
M  V30 9 H 72.872500 56.477600 41.086200 0
M  V30 10 H 72.641700 57.720000 43.198600 0
M  V30 11 H 74.357400 58.056000 43.239600 0
M  V30 12 H 73.355100 58.732300 41.953600 0
M  V30 13 H 73.224200 55.348900 43.323700 0
M  V30 14 H 74.921000 55.422600 43.089400 0
M  V30 15 R 73.870300 53.935400 41.852800 0
M  V30 END ATOM
M  V30 BEGIN BOND
M  V30 1 1 2 1
M  V30 2 1 3 2
M  V30 3 1 4 3
M  V30 4 1 5 3
M  V30 5 1 6 1
M  V30 6 1 7 1
M  V30 7 1 8 1
M  V30 8 1 3 9 CFG=3
M  V30 9 1 10 4
M  V30 10 1 11 4
M  V30 11 1 12 4
M  V30 12 1 13 5
M  V30 13 1 14 5
M  V30 14 1 15 5
M  V30 END BOND
M  V30 END CTAB
M  END
$$$$
R-group 638 (35689-3)
     RDKit          3D

  0  0  0  0  0  0  0  0  0  0999 V3000
M  V30 BEGIN CTAB
M  V30 COUNTS 16 16 0 0 1
M  V30 BEGIN ATOM
M  V30 1 C 73.483500 54.666600 42.090800 0 CFG=2
M  V30 2 C 73.045300 55.375900 40.811600 0
M  V30 3 C 73.488700 56.800200 41.017300 0 CFG=2
M  V30 4 O 73.669500 57.258200 39.724400 0
M  V30 5 C 74.801500 56.731900 41.812800 0 CFG=2
M  V30 6 F 75.862400 56.859800 41.010100 0
M  V30 7 C 74.839000 55.329300 42.427900 0
M  V30 8 H 72.787800 54.951000 42.881200 0
M  V30 9 H 73.593600 55.010200 39.953800 0
M  V30 10 H 72.002800 55.256000 40.514400 0
M  V30 11 H 72.734500 57.383800 41.547600 0
M  V30 12 H 74.856700 57.518200 42.563600 0
M  V30 13 H 75.015000 55.368700 43.505200 0
M  V30 14 H 75.665400 54.778600 41.979500 0
M  V30 15 H 74.496000 56.925000 39.401800 0
M  V30 16 R 73.465000 53.118800 41.982100 0
M  V30 END ATOM
M  V30 BEGIN BOND
M  V30 1 1 2 1
M  V30 2 1 3 2
M  V30 3 1 4 3
M  V30 4 1 5 3
M  V30 5 1 6 5
M  V30 6 1 7 1
M  V30 7 1 7 5
M  V30 8 1 1 8 CFG=1
M  V30 9 1 9 2
M  V30 10 1 10 2
M  V30 11 1 3 11 CFG=1
M  V30 12 1 5 12 CFG=1
M  V30 13 1 13 7
M  V30 14 1 14 7
M  V30 15 1 15 4
M  V30 16 1 16 1
M  V30 END BOND
M  V30 END CTAB
M  END
$$$$
R-group 639 (758-1)
     RDKit          3D

  0  0  0  0  0  0  0  0  0  0999 V3000
M  V30 BEGIN CTAB
M  V30 COUNTS 8 8 0 0 1
M  V30 BEGIN ATOM
M  V30 1 C 74.072000 54.874600 42.031600 0
M  V30 2 C 74.874500 55.519700 42.922800 0
M  V30 3 C 74.941300 56.836100 42.421000 0
M  V30 4 N 74.221100 56.985500 41.327800 0
M  V30 5 O 73.672300 55.734700 41.062800 0
M  V30 6 H 75.355900 55.119500 43.801100 0
M  V30 7 H 75.496100 57.658000 42.834500 0
M  V30 8 R 73.598500 53.461900 41.925900 0
M  V30 END ATOM
M  V30 BEGIN BOND
M  V30 1 2 2 1
M  V30 2 1 3 2
M  V30 3 2 4 3
M  V30 4 1 5 1
M  V30 5 1 5 4
M  V30 6 1 6 2
M  V30 7 1 7 3
M  V30 8 1 8 1
M  V30 END BOND
M  V30 END CTAB
M  END
$$$$
R-group 640 (16189-2)
     RDKit          3D

  0  0  0  0  0  0  0  0  0  0999 V3000
M  V30 BEGIN CTAB
M  V30 COUNTS 19 18 0 0 1
M  V30 BEGIN ATOM
M  V30 1 O 73.672400 55.037800 41.919200 0
M  V30 2 C 74.694800 55.774800 41.243900 0 CFG=1
M  V30 3 C 74.111900 56.463500 39.991300 0
M  V30 4 C 75.207800 56.797800 42.273800 0
M  V30 5 C 76.472400 57.546700 41.830100 0
M  V30 6 C 74.113600 57.706400 42.863200 0
M  V30 7 O 75.672200 56.019300 43.324700 0
M  V30 8 H 75.530500 55.131000 40.970300 0
M  V30 9 H 74.862400 57.072000 39.488000 0
M  V30 10 H 73.742800 55.754300 39.254800 0
M  V30 11 H 73.275500 57.114000 40.246100 0
M  V30 12 H 76.329700 58.175300 40.954100 0
M  V30 13 H 77.271700 56.858100 41.598700 0
M  V30 14 H 76.872200 58.140400 42.650100 0
M  V30 15 H 73.755600 58.436600 42.136700 0
M  V30 16 H 73.251300 57.138900 43.214400 0
M  V30 17 H 74.505700 58.249900 43.724500 0
M  V30 18 H 74.968200 55.428700 43.552900 0
M  V30 19 R 73.575200 53.620200 41.762900 0
M  V30 END ATOM
M  V30 BEGIN BOND
M  V30 1 1 2 1
M  V30 2 1 3 2
M  V30 3 1 4 2
M  V30 4 1 5 4
M  V30 5 1 6 4
M  V30 6 1 7 4
M  V30 7 1 2 8 CFG=3
M  V30 8 1 9 3
M  V30 9 1 10 3
M  V30 10 1 11 3
M  V30 11 1 12 5
M  V30 12 1 13 5
M  V30 13 1 14 5
M  V30 14 1 15 6
M  V30 15 1 16 6
M  V30 16 1 17 6
M  V30 17 1 18 7
M  V30 18 1 19 1
M  V30 END BOND
M  V30 END CTAB
M  END
$$$$
R-group 641 (39714-1)
     RDKit          3D

  0  0  0  0  0  0  0  0  0  0999 V3000
M  V30 BEGIN CTAB
M  V30 COUNTS 9 8 0 0 1
M  V30 BEGIN ATOM
M  V30 1 O 73.752500 55.126800 42.124500 0
M  V30 2 C 74.944000 55.708400 41.814000 0 CFG=1
M  V30 3 C 74.716400 56.800700 40.766700 0
M  V30 4 F 75.470000 56.284400 42.921900 0
M  V30 5 H 75.672000 54.994000 41.436300 0
M  V30 6 H 74.259300 56.396800 39.863600 0
M  V30 7 H 74.062700 57.583400 41.151800 0
M  V30 8 H 75.663800 57.258000 40.482100 0
M  V30 9 R 73.512300 53.749200 41.818400 0
M  V30 END ATOM
M  V30 BEGIN BOND
M  V30 1 1 2 1
M  V30 2 1 3 2
M  V30 3 1 4 2
M  V30 4 1 2 5 CFG=3
M  V30 5 1 6 3
M  V30 6 1 7 3
M  V30 7 1 8 3
M  V30 8 1 9 1
M  V30 END BOND
M  V30 END CTAB
M  END
$$$$
R-group 642 (32026-1)
     RDKit          3D

  0  0  0  0  0  0  0  0  0  0999 V3000
M  V30 BEGIN CTAB
M  V30 COUNTS 17 17 0 0 1
M  V30 BEGIN ATOM
M  V30 1 C 72.728700 54.208000 41.999600 0
M  V30 2 C 73.775000 55.285500 41.758400 0
M  V30 3 C 73.787300 56.017400 40.542000 0
M  V30 4 N 72.782900 55.916200 39.589800 0
M  V30 5 C 74.860500 56.856800 40.254900 0
M  V30 6 C 75.870300 57.079600 41.203600 0
M  V30 7 C 75.762100 56.501600 42.462800 0
M  V30 8 C 74.780400 55.559100 42.718000 0
M  V30 9 F 74.878000 54.915600 43.893000 0
M  V30 10 H 71.817400 54.438000 41.446900 0
M  V30 11 H 72.396800 54.202800 43.014100 0
M  V30 12 H 72.916400 56.341400 38.680500 0
M  V30 13 H 72.090100 55.184500 39.644800 0
M  V30 14 H 74.882500 57.391500 39.321900 0
M  V30 15 H 76.676100 57.770200 40.992300 0
M  V30 16 H 76.472300 56.733400 43.238300 0
M  V30 17 R 73.222900 52.818300 41.598400 0
M  V30 END ATOM
M  V30 BEGIN BOND
M  V30 1 1 2 1
M  V30 2 2 3 2
M  V30 3 1 4 3
M  V30 4 1 5 3
M  V30 5 2 6 5
M  V30 6 1 7 6
M  V30 7 1 8 2
M  V30 8 2 8 7
M  V30 9 1 9 8
M  V30 10 1 10 1
M  V30 11 1 11 1
M  V30 12 1 12 4
M  V30 13 1 13 4
M  V30 14 1 14 5
M  V30 15 1 15 6
M  V30 16 1 16 7
M  V30 17 1 17 1
M  V30 END BOND
M  V30 END CTAB
M  END
$$$$
R-group 643 (10602-1)
     RDKit          3D

  0  0  0  0  0  0  0  0  0  0999 V3000
M  V30 BEGIN CTAB
M  V30 COUNTS 14 14 0 0 1
M  V30 BEGIN ATOM
M  V30 1 C 74.198300 54.753400 41.821000 0
M  V30 2 N 73.671600 55.702700 42.531400 0
M  V30 3 C 74.352900 56.829800 42.231800 0
M  V30 4 C 73.864100 58.074600 42.859000 0
M  V30 5 C 75.336600 56.494600 41.342300 0
M  V30 6 C 76.320500 57.267000 40.564900 0
M  V30 7 O 75.265300 55.156900 41.088400 0
M  V30 8 H 73.672400 58.853200 42.122600 0
M  V30 9 H 72.920500 57.915000 43.384000 0
M  V30 10 H 74.558900 58.451000 43.606100 0
M  V30 11 H 76.766900 58.076400 41.142500 0
M  V30 12 H 77.103800 56.643200 40.144200 0
M  V30 13 H 75.776400 57.660600 39.724700 0
M  V30 14 R 73.729600 53.362400 41.822600 0
M  V30 END ATOM
M  V30 BEGIN BOND
M  V30 1 2 2 1
M  V30 2 1 3 2
M  V30 3 1 4 3
M  V30 4 2 5 3
M  V30 5 1 6 5
M  V30 6 1 7 1
M  V30 7 1 7 5
M  V30 8 1 8 4
M  V30 9 1 9 4
M  V30 10 1 10 4
M  V30 11 1 11 6
M  V30 12 1 12 6
M  V30 13 1 13 6
M  V30 14 1 14 1
M  V30 END BOND
M  V30 END CTAB
M  END
$$$$
R-group 644 (62-1)
     RDKit          3D

  0  0  0  0  0  0  0  0  0  0999 V3000
M  V30 BEGIN CTAB
M  V30 COUNTS 9 8 0 0 1
M  V30 BEGIN ATOM
M  V30 1 C 73.858400 57.333800 42.674900 0
M  V30 2 C 73.636500 55.852100 42.977300 0
M  V30 3 O 73.873000 55.113800 41.792900 0
M  V30 4 H 73.673900 57.944700 43.557000 0
M  V30 5 H 74.880400 57.512900 42.342500 0
M  V30 6 H 73.186600 57.676800 41.886800 0
M  V30 7 H 72.612400 55.706800 43.324800 0
M  V30 8 H 74.311600 55.521200 43.763600 0
M  V30 9 R 73.491600 53.741200 41.833800 0
M  V30 END ATOM
M  V30 BEGIN BOND
M  V30 1 1 2 1
M  V30 2 1 3 2
M  V30 3 1 4 1
M  V30 4 1 5 1
M  V30 5 1 6 1
M  V30 6 1 7 2
M  V30 7 1 8 2
M  V30 8 1 9 3
M  V30 END BOND
M  V30 END CTAB
M  END
$$$$
R-group 645 (14370-1)
     RDKit          3D

  0  0  0  0  0  0  0  0  0  0999 V3000
M  V30 BEGIN CTAB
M  V30 COUNTS 13 13 0 0 1
M  V30 BEGIN ATOM
M  V30 1 C 74.070300 54.759300 41.882600 0
M  V30 2 C 74.872800 55.470500 42.818200 0
M  V30 3 C 74.777000 56.792900 42.524800 0
M  V30 4 N 73.898500 56.906100 41.477500 0
M  V30 5 C 73.236600 58.105900 41.082100 0
M  V30 6 C 73.672300 55.671200 40.950600 0
M  V30 7 H 75.400100 55.077600 43.674600 0
M  V30 8 H 75.151200 57.655600 43.058800 0
M  V30 9 H 73.311700 58.301600 40.012600 0
M  V30 10 H 72.183200 58.058400 41.346700 0
M  V30 11 H 73.667300 58.861500 41.713100 0
M  V30 12 H 73.037900 55.570700 40.082000 0
M  V30 13 R 73.683500 53.310600 41.908800 0
M  V30 END ATOM
M  V30 BEGIN BOND
M  V30 1 1 2 1
M  V30 2 2 3 2
M  V30 3 1 4 3
M  V30 4 1 5 4
M  V30 5 2 6 1
M  V30 6 1 6 4
M  V30 7 1 7 2
M  V30 8 1 8 3
M  V30 9 1 9 5
M  V30 10 1 10 5
M  V30 11 1 11 5
M  V30 12 1 12 6
M  V30 13 1 13 1
M  V30 END BOND
M  V30 END CTAB
M  END
$$$$
R-group 646 (28052-2)
     RDKit          3D

  0  0  0  0  0  0  0  0  0  0999 V3000
M  V30 BEGIN CTAB
M  V30 COUNTS 16 16 0 0 1
M  V30 BEGIN ATOM
M  V30 1 C 74.495400 55.378000 42.804500 0 CFG=1
M  V30 2 C 75.755600 55.958800 42.119400 0
M  V30 3 C 75.326100 57.072900 41.175000 0
M  V30 4 C 73.833400 57.259100 41.425300 0 CFG=1
M  V30 5 C 73.103300 56.813900 40.244100 0
M  V30 6 N 72.511400 56.455800 39.325200 0
M  V30 7 C 73.501300 56.528000 42.732300 0
M  V30 8 H 74.738000 55.299000 43.864000 0
M  V30 9 H 76.422800 56.370100 42.876300 0
M  V30 10 H 76.337700 55.257900 41.554400 0
M  V30 11 H 75.513300 56.787800 40.138800 0
M  V30 12 H 75.900200 57.984000 41.324700 0
M  V30 13 H 73.594600 58.318600 41.534000 0
M  V30 14 H 73.723200 57.225500 43.537900 0
M  V30 15 H 72.472600 56.227200 42.924600 0
M  V30 16 R 73.958300 53.951400 42.388900 0
M  V30 END ATOM
M  V30 BEGIN BOND
M  V30 1 1 2 1
M  V30 2 1 3 2
M  V30 3 1 4 3
M  V30 4 1 5 4
M  V30 5 3 6 5
M  V30 6 1 7 1
M  V30 7 1 7 4
M  V30 8 1 1 8 CFG=1
M  V30 9 1 9 2
M  V30 10 1 10 2
M  V30 11 1 11 3
M  V30 12 1 12 3
M  V30 13 1 4 13 CFG=1
M  V30 14 1 14 7
M  V30 15 1 15 7
M  V30 16 1 16 1
M  V30 END BOND
M  V30 END CTAB
M  END
$$$$
R-group 647 (5692-1)
     RDKit          3D

  0  0  0  0  0  0  0  0  0  0999 V3000
M  V30 BEGIN CTAB
M  V30 COUNTS 18 18 0 0 1
M  V30 BEGIN ATOM
M  V30 1 C 73.352100 54.870000 41.640800 0
M  V30 2 C 73.096300 55.645100 42.924200 0
M  V30 3 C 73.469100 57.091700 42.669000 0
M  V30 4 C 74.919700 57.346700 42.990400 0
M  V30 5 C 75.981500 56.292200 43.204200 0
M  V30 6 C 76.085600 57.239800 42.030800 0
M  V30 7 H 74.322100 55.154000 41.234100 0
M  V30 8 H 72.641200 55.219300 40.894000 0
M  V30 9 H 72.080600 55.556100 43.313900 0
M  V30 10 H 73.716400 55.268900 43.723800 0
M  V30 11 H 73.239600 57.419400 41.653100 0
M  V30 12 H 72.876000 57.720300 43.334500 0
M  V30 13 H 74.939300 58.057900 43.763300 0
M  V30 14 H 76.558700 56.444800 44.118200 0
M  V30 15 H 75.765100 55.257100 42.972000 0
M  V30 16 H 75.883900 56.845300 41.031800 0
M  V30 17 H 76.869000 57.995000 42.078800 0
M  V30 18 R 73.297100 53.346400 41.743600 0
M  V30 END ATOM
M  V30 BEGIN BOND
M  V30 1 1 2 1
M  V30 2 1 3 2
M  V30 3 1 4 3
M  V30 4 1 5 4
M  V30 5 1 6 4
M  V30 6 1 6 5
M  V30 7 1 7 1
M  V30 8 1 8 1
M  V30 9 1 9 2
M  V30 10 1 10 2
M  V30 11 1 11 3
M  V30 12 1 12 3
M  V30 13 1 13 4
M  V30 14 1 14 5
M  V30 15 1 15 5
M  V30 16 1 16 6
M  V30 17 1 17 6
M  V30 18 1 18 1
M  V30 END BOND
M  V30 END CTAB
M  END
$$$$
R-group 648 (2979-1)
     RDKit          3D

  0  0  0  0  0  0  0  0  0  0999 V3000
M  V30 BEGIN CTAB
M  V30 COUNTS 12 12 0 0 1
M  V30 BEGIN ATOM
M  V30 1 C 74.095900 55.061600 41.795400 0
M  V30 2 C 73.538200 56.093800 40.789100 0
M  V30 3 C 73.786200 57.150400 41.866700 0
M  V30 4 F 75.013800 57.657900 41.761800 0
M  V30 5 F 72.857400 58.101000 41.959500 0
M  V30 6 C 73.684100 56.029200 42.907000 0
M  V30 7 H 75.184300 55.097300 41.701700 0
M  V30 8 H 74.143600 56.221300 39.890900 0
M  V30 9 H 72.486300 55.957500 40.524600 0
M  V30 10 H 72.668500 55.864000 43.271100 0
M  V30 11 H 74.400600 56.057400 43.722000 0
M  V30 12 R 73.625500 53.603100 41.822500 0
M  V30 END ATOM
M  V30 BEGIN BOND
M  V30 1 1 2 1
M  V30 2 1 3 2
M  V30 3 1 4 3
M  V30 4 1 5 3
M  V30 5 1 6 1
M  V30 6 1 6 3
M  V30 7 1 7 1
M  V30 8 1 8 2
M  V30 9 1 9 2
M  V30 10 1 10 6
M  V30 11 1 11 6
M  V30 12 1 12 1
M  V30 END BOND
M  V30 END CTAB
M  END
$$$$
R-group 649 (1362-1)
     RDKit          3D

  0  0  0  0  0  0  0  0  0  0999 V3000
M  V30 BEGIN CTAB
M  V30 COUNTS 10 10 0 0 1
M  V30 BEGIN ATOM
M  V30 1 C 74.128400 55.295900 41.920300 0
M  V30 2 C 73.726700 55.936100 40.699200 0
M  V30 3 N 73.399600 56.458000 39.723200 0
M  V30 4 C 73.960400 56.151000 43.158000 0
M  V30 5 C 75.337600 55.882200 42.643700 0
M  V30 6 H 73.677200 55.661400 44.080400 0
M  V30 7 H 73.563000 57.155500 43.032400 0
M  V30 8 H 75.860300 56.704100 42.159600 0
M  V30 9 H 75.959500 55.269200 43.288300 0
M  V30 10 R 73.732100 53.792600 41.988000 0
M  V30 END ATOM
M  V30 BEGIN BOND
M  V30 1 1 2 1
M  V30 2 3 3 2
M  V30 3 1 4 1
M  V30 4 1 5 1
M  V30 5 1 5 4
M  V30 6 1 6 4
M  V30 7 1 7 4
M  V30 8 1 8 5
M  V30 9 1 9 5
M  V30 10 1 10 1
M  V30 END BOND
M  V30 END CTAB
M  END
$$$$
R-group 650 (18175-1)
     RDKit          3D

  0  0  0  0  0  0  0  0  0  0999 V3000
M  V30 BEGIN CTAB
M  V30 COUNTS 24 23 0 0 1
M  V30 BEGIN ATOM
M  V30 1 C 75.949500 57.082800 43.642800 0
M  V30 2 C 76.078700 56.983400 42.130000 0
M  V30 3 C 74.754300 56.512300 41.497800 0
M  V30 4 O 73.673100 57.295200 41.968600 0
M  V30 5 C 74.874900 56.664600 39.980600 0
M  V30 6 C 73.628000 56.342800 39.143500 0
M  V30 7 C 74.590000 55.035600 41.872100 0
M  V30 8 C 73.178500 54.453100 41.966400 0
M  V30 9 H 76.872800 57.225300 44.125000 0
M  V30 10 H 75.672300 56.155300 44.125400 0
M  V30 11 H 75.274600 57.893800 43.913800 0
M  V30 12 H 76.437400 57.930400 41.721900 0
M  V30 13 H 76.868600 56.269500 41.892300 0
M  V30 14 H 75.220500 57.657600 39.721000 0
M  V30 15 H 75.698600 56.014000 39.724300 0
M  V30 16 H 73.841300 56.459400 38.083800 0
M  V30 17 H 73.287400 55.319600 39.271100 0
M  V30 18 H 72.802600 57.010000 39.389100 0
M  V30 19 H 75.225000 54.469100 41.206000 0
M  V30 20 H 75.034000 54.817900 42.831600 0
M  V30 21 H 72.739600 54.743200 42.920600 0
M  V30 22 H 72.509500 54.856300 41.213000 0
M  V30 23 H 73.841700 58.197000 41.738600 0
M  V30 24 R 73.223300 52.922200 41.845600 0
M  V30 END ATOM
M  V30 BEGIN BOND
M  V30 1 1 2 1
M  V30 2 1 3 2
M  V30 3 1 4 3
M  V30 4 1 5 3
M  V30 5 1 6 5
M  V30 6 1 7 3
M  V30 7 1 8 7
M  V30 8 1 9 1
M  V30 9 1 10 1
M  V30 10 1 11 1
M  V30 11 1 12 2
M  V30 12 1 13 2
M  V30 13 1 14 5
M  V30 14 1 15 5
M  V30 15 1 16 6
M  V30 16 1 17 6
M  V30 17 1 18 6
M  V30 18 1 19 7
M  V30 19 1 20 7
M  V30 20 1 21 8
M  V30 21 1 22 8
M  V30 22 1 23 4
M  V30 23 1 24 8
M  V30 END BOND
M  V30 END CTAB
M  END
$$$$
R-group 651 (1119-1)
     RDKit          3D

  0  0  0  0  0  0  0  0  0  0999 V3000
M  V30 BEGIN CTAB
M  V30 COUNTS 8 7 0 0 1
M  V30 BEGIN ATOM
M  V30 1 C 73.357000 55.108900 42.059200 0
M  V30 2 C 74.624100 55.934900 42.262700 0
M  V30 3 F 74.252700 57.194700 42.485700 0
M  V30 4 F 75.272800 55.502900 43.324900 0
M  V30 5 F 75.420800 55.912400 41.198500 0
M  V30 6 H 72.872300 55.591600 41.216800 0
M  V30 7 H 72.711900 55.263800 42.924700 0
M  V30 8 R 73.428400 53.583100 41.774300 0
M  V30 END ATOM
M  V30 BEGIN BOND
M  V30 1 1 2 1
M  V30 2 1 3 2
M  V30 3 1 4 2
M  V30 4 1 5 2
M  V30 5 1 6 1
M  V30 6 1 7 1
M  V30 7 1 8 1
M  V30 END BOND
M  V30 END CTAB
M  END
$$$$
R-group 652 (10675-1)
     RDKit          3D

  0  0  0  0  0  0  0  0  0  0999 V3000
M  V30 BEGIN CTAB
M  V30 COUNTS 15 15 0 0 1
M  V30 BEGIN ATOM
M  V30 1 C 72.635700 54.187000 42.070600 0
M  V30 2 C 73.676800 55.267100 41.893000 0
M  V30 3 C 73.771500 55.902700 40.637500 0
M  V30 4 F 72.819000 55.728500 39.688600 0
M  V30 5 C 74.879600 56.690700 40.345600 0
M  V30 6 C 75.858300 56.920300 41.324600 0
M  V30 7 F 76.926200 57.693400 41.030400 0
M  V30 8 C 75.659700 56.458200 42.632700 0
M  V30 9 F 76.472100 56.835500 43.641600 0
M  V30 10 C 74.585500 55.613600 42.923100 0
M  V30 11 F 74.472600 55.128200 44.176500 0
M  V30 12 H 71.776200 54.451500 41.451700 0
M  V30 13 H 72.219600 54.150500 43.065700 0
M  V30 14 H 74.971700 57.132000 39.366600 0
M  V30 15 R 73.193400 52.811800 41.654100 0
M  V30 END ATOM
M  V30 BEGIN BOND
M  V30 1 1 2 1
M  V30 2 2 3 2
M  V30 3 1 4 3
M  V30 4 1 5 3
M  V30 5 2 6 5
M  V30 6 1 7 6
M  V30 7 1 8 6
M  V30 8 1 9 8
M  V30 9 1 10 2
M  V30 10 2 10 8
M  V30 11 1 11 10
M  V30 12 1 12 1
M  V30 13 1 13 1
M  V30 14 1 14 5
M  V30 15 1 15 1
M  V30 END BOND
M  V30 END CTAB
M  END
$$$$
R-group 653 (43046-4)
     RDKit          3D

  0  0  0  0  0  0  0  0  0  0999 V3000
M  V30 BEGIN CTAB
M  V30 COUNTS 19 19 0 0 1
M  V30 BEGIN ATOM
M  V30 1 C 73.780100 54.644400 42.248800 0 CFG=2
M  V30 2 C 73.272700 55.739600 41.333100 0
M  V30 3 C 74.701800 56.046700 41.084900 0 CFG=1
M  V30 4 C 75.195800 57.267800 41.779900 0
M  V30 5 C 76.580300 57.603700 41.313900 0
M  V30 6 C 75.114900 57.221800 43.323800 0
M  V30 7 O 75.134400 54.892600 41.809200 0
M  V30 8 H 73.666900 54.935500 43.290100 0
M  V30 9 H 72.721700 55.473000 40.434500 0
M  V30 10 H 72.872600 56.600800 41.851800 0
M  V30 11 H 74.951700 55.993700 40.025900 0
M  V30 12 H 74.522000 58.056800 41.458400 0
M  V30 13 H 77.272500 56.854700 41.634300 0
M  V30 14 H 76.664900 57.796000 40.243700 0
M  V30 15 H 76.872500 58.460000 41.860300 0
M  V30 16 H 75.588700 56.323500 43.728700 0
M  V30 17 H 75.633400 58.057300 43.775800 0
M  V30 18 H 74.069800 57.264600 43.644000 0
M  V30 19 R 73.498700 53.172300 42.053900 0
M  V30 END ATOM
M  V30 BEGIN BOND
M  V30 1 1 2 1
M  V30 2 1 3 2
M  V30 3 1 4 3
M  V30 4 1 5 4
M  V30 5 1 6 4
M  V30 6 1 7 1
M  V30 7 1 7 3
M  V30 8 1 1 8 CFG=1
M  V30 9 1 9 2
M  V30 10 1 10 2
M  V30 11 1 3 11 CFG=3
M  V30 12 1 12 4
M  V30 13 1 13 5
M  V30 14 1 14 5
M  V30 15 1 15 5
M  V30 16 1 16 6
M  V30 17 1 17 6
M  V30 18 1 18 6
M  V30 19 1 19 1
M  V30 END BOND
M  V30 END CTAB
M  END
$$$$
R-group 654 (12491-1)
     RDKit          3D

  0  0  0  0  0  0  0  0  0  0999 V3000
M  V30 BEGIN CTAB
M  V30 COUNTS 14 13 0 0 1
M  V30 BEGIN ATOM
M  V30 1 C 74.095500 55.417000 41.844100 0
M  V30 2 C 73.552100 56.045500 43.149200 0
M  V30 3 C 75.602600 55.707800 41.828400 0
M  V30 4 C 73.480000 56.233600 40.677200 0
M  V30 5 F 74.072300 56.020800 39.503600 0
M  V30 6 H 73.692200 57.126400 43.166900 0
M  V30 7 H 72.488900 55.854600 43.299700 0
M  V30 8 H 74.072300 55.657000 44.019900 0
M  V30 9 H 75.806300 56.778500 41.792800 0
M  V30 10 H 76.069900 55.332700 42.734100 0
M  V30 11 H 76.076200 55.258200 40.961500 0
M  V30 12 H 72.440000 55.995900 40.523800 0
M  V30 13 H 73.544900 57.308500 40.851800 0
M  V30 14 R 73.760400 53.858000 41.805700 0
M  V30 END ATOM
M  V30 BEGIN BOND
M  V30 1 1 2 1
M  V30 2 1 3 1
M  V30 3 1 4 1
M  V30 4 1 5 4
M  V30 5 1 6 2
M  V30 6 1 7 2
M  V30 7 1 8 2
M  V30 8 1 9 3
M  V30 9 1 10 3
M  V30 10 1 11 3
M  V30 11 1 12 4
M  V30 12 1 13 4
M  V30 13 1 14 1
M  V30 END BOND
M  V30 END CTAB
M  END
$$$$
R-group 655 (15811-1)
     RDKit          3D

  0  0  0  0  0  0  0  0  0  0999 V3000
M  V30 BEGIN CTAB
M  V30 COUNTS 15 15 0 0 1
M  V30 BEGIN ATOM
M  V30 1 N 73.412200 54.651400 41.536300 0
M  V30 2 C 74.588300 55.215400 40.905800 0
M  V30 3 C 74.459100 56.377500 41.871600 0
M  V30 4 C 75.756000 56.859500 42.458300 0
M  V30 5 O 76.471800 57.258200 41.325400 0
M  V30 6 C 73.553100 55.494700 42.708100 0
M  V30 7 H 75.477400 54.606300 41.067600 0
M  V30 8 H 74.401600 55.455800 39.861500 0
M  V30 9 H 73.879300 57.181500 41.411800 0
M  V30 10 H 75.618100 57.658000 43.184100 0
M  V30 11 H 76.293000 56.058800 42.963800 0
M  V30 12 H 72.583500 55.930100 42.933900 0
M  V30 13 H 74.069100 55.012000 43.533800 0
M  V30 14 H 75.991600 57.947300 40.891000 0
M  V30 15 R 73.400000 53.207200 41.743700 0
M  V30 END ATOM
M  V30 BEGIN BOND
M  V30 1 1 2 1
M  V30 2 1 3 2
M  V30 3 1 4 3
M  V30 4 1 5 4
M  V30 5 1 6 1
M  V30 6 1 6 3
M  V30 7 1 7 2
M  V30 8 1 8 2
M  V30 9 1 9 3
M  V30 10 1 10 4
M  V30 11 1 11 4
M  V30 12 1 12 6
M  V30 13 1 13 6
M  V30 14 1 14 5
M  V30 15 1 15 1
M  V30 END BOND
M  V30 END CTAB
M  END
$$$$
R-group 656 (39110-1)
     RDKit          3D

  0  0  0  0  0  0  0  0  0  0999 V3000
M  V30 BEGIN CTAB
M  V30 COUNTS 20 19 0 0 1
M  V30 BEGIN ATOM
M  V30 1 C 74.972200 56.584900 40.147800 0
M  V30 2 C 75.587700 55.996200 41.428900 0
M  V30 3 C 74.687400 55.957700 42.678600 0
M  V30 4 C 75.560600 55.485300 43.871700 0
M  V30 5 C 74.185200 57.389400 42.991300 0
M  V30 6 C 73.408400 55.098600 42.454200 0
M  V30 7 H 75.664400 56.467100 39.324100 0
M  V30 8 H 74.784800 57.651100 40.242800 0
M  V30 9 H 74.051800 56.090300 39.854200 0
M  V30 10 H 75.927700 54.987300 41.230100 0
M  V30 11 H 76.488200 56.558200 41.658800 0
M  V30 12 H 75.032700 55.257500 44.794700 0
M  V30 13 H 76.072300 54.562400 43.671300 0
M  V30 14 H 76.334200 56.218700 44.096700 0
M  V30 15 H 73.391100 57.371800 43.730300 0
M  V30 16 H 74.970500 58.027500 43.387900 0
M  V30 17 H 73.747200 57.888200 42.129800 0
M  V30 18 H 72.762700 55.302700 43.314000 0
M  V30 19 H 72.872600 55.586300 41.647200 0
M  V30 20 R 73.404600 53.566300 42.094400 0
M  V30 END ATOM
M  V30 BEGIN BOND
M  V30 1 1 2 1
M  V30 2 1 3 2
M  V30 3 1 4 3
M  V30 4 1 5 3
M  V30 5 1 6 3
M  V30 6 1 7 1
M  V30 7 1 8 1
M  V30 8 1 9 1
M  V30 9 1 10 2
M  V30 10 1 11 2
M  V30 11 1 12 4
M  V30 12 1 13 4
M  V30 13 1 14 4
M  V30 14 1 15 5
M  V30 15 1 16 5
M  V30 16 1 17 5
M  V30 17 1 18 6
M  V30 18 1 19 6
M  V30 19 1 20 6
M  V30 END BOND
M  V30 END CTAB
M  END
$$$$
R-group 657 (87-1)
     RDKit          3D

  0  0  0  0  0  0  0  0  0  0999 V3000
M  V30 BEGIN CTAB
M  V30 COUNTS 9 9 0 0 1
M  V30 BEGIN ATOM
M  V30 1 C 73.889900 54.885100 41.788900 0
M  V30 2 C 74.556300 55.604000 42.824600 0
M  V30 3 N 74.749300 56.860200 42.522800 0
M  V30 4 N 74.160400 57.005300 41.325800 0
M  V30 5 C 73.671200 55.835500 40.826200 0
M  V30 6 H 74.904700 55.269900 43.783700 0
M  V30 7 H 73.203900 55.790700 39.852900 0
M  V30 8 H 74.161600 57.896200 40.847900 0
M  V30 9 R 73.491600 53.436800 41.773700 0
M  V30 END ATOM
M  V30 BEGIN BOND
M  V30 1 1 2 1
M  V30 2 2 3 2
M  V30 3 1 4 3
M  V30 4 2 5 1
M  V30 5 1 5 4
M  V30 6 1 6 2
M  V30 7 1 7 5
M  V30 8 1 8 4
M  V30 9 1 9 1
M  V30 END BOND
M  V30 END CTAB
M  END
$$$$
R-group 658 (35688-3)
     RDKit          3D

  0  0  0  0  0  0  0  0  0  0999 V3000
M  V30 BEGIN CTAB
M  V30 COUNTS 16 16 0 0 1
M  V30 BEGIN ATOM
M  V30 1 C 73.350200 54.962900 41.541600 0 CFG=1
M  V30 2 C 73.065000 55.564700 42.924700 0
M  V30 3 C 73.196700 57.067900 42.985100 0
M  V30 4 O 74.505400 57.258000 42.523500 0
M  V30 5 C 74.561400 57.181700 41.114100 0
M  V30 6 C 74.487900 55.702800 40.791700 0 CFG=1
M  V30 7 F 75.672100 55.257900 41.151100 0
M  V30 8 H 72.473900 55.182900 40.925500 0
M  V30 9 H 72.077900 55.260900 43.277700 0
M  V30 10 H 73.822800 55.231900 43.628500 0
M  V30 11 H 73.091600 57.423000 44.008900 0
M  V30 12 H 72.472300 57.611200 42.380200 0
M  V30 13 H 75.510200 57.598000 40.771200 0
M  V30 14 H 73.757400 57.739300 40.629200 0
M  V30 15 H 74.404500 55.593800 39.712200 0
M  V30 16 R 73.432300 53.406600 41.619100 0
M  V30 END ATOM
M  V30 BEGIN BOND
M  V30 1 1 2 1
M  V30 2 1 3 2
M  V30 3 1 4 3
M  V30 4 1 5 4
M  V30 5 1 6 1
M  V30 6 1 6 5
M  V30 7 1 7 6
M  V30 8 1 1 8 CFG=3
M  V30 9 1 9 2
M  V30 10 1 10 2
M  V30 11 1 11 3
M  V30 12 1 12 3
M  V30 13 1 13 5
M  V30 14 1 14 5
M  V30 15 1 6 15 CFG=3
M  V30 16 1 16 1
M  V30 END BOND
M  V30 END CTAB
M  END
$$$$
R-group 659 (1436-1)
     RDKit          3D

  0  0  0  0  0  0  0  0  0  0999 V3000
M  V30 BEGIN CTAB
M  V30 COUNTS 12 12 0 0 1
M  V30 BEGIN ATOM
M  V30 1 C 72.820600 54.282100 41.958000 0
M  V30 2 C 73.901000 55.323400 41.892200 0
M  V30 3 C 74.806400 55.675900 42.925000 0
M  V30 4 N 75.672900 56.592300 42.555400 0
M  V30 5 N 75.359700 56.842200 41.276400 0
M  V30 6 C 74.274800 56.119400 40.850000 0
M  V30 7 H 71.998500 54.458200 41.266600 0
M  V30 8 H 72.341800 54.267600 42.924700 0
M  V30 9 H 74.857100 55.281600 43.929900 0
M  V30 10 H 73.881200 56.207200 39.849600 0
M  V30 11 H 75.878000 57.511200 40.725600 0
M  V30 12 R 73.342100 52.900700 41.595700 0
M  V30 END ATOM
M  V30 BEGIN BOND
M  V30 1 1 2 1
M  V30 2 1 3 2
M  V30 3 2 4 3
M  V30 4 1 5 4
M  V30 5 2 6 2
M  V30 6 1 6 5
M  V30 7 1 7 1
M  V30 8 1 8 1
M  V30 9 1 9 3
M  V30 10 1 10 6
M  V30 11 1 11 5
M  V30 12 1 12 1
M  V30 END BOND
M  V30 END CTAB
M  END
$$$$
R-group 660 (6669-1)
     RDKit          3D

  0  0  0  0  0  0  0  0  0  0999 V3000
M  V30 BEGIN CTAB
M  V30 COUNTS 10 10 0 0 1
M  V30 BEGIN ATOM
M  V30 1 C 74.662800 55.228500 41.855000 0 CFG=2
M  V30 2 C 74.469200 56.170500 43.041200 0
M  V30 3 N 74.033600 57.204800 42.103200 0
M  V30 4 C 74.072200 56.373400 41.015700 0
M  V30 5 O 73.750700 56.553700 39.861000 0
M  V30 6 H 75.726900 55.123400 41.642400 0
M  V30 7 H 73.677400 55.858500 43.724500 0
M  V30 8 H 75.398700 56.398800 43.568900 0
M  V30 9 H 73.739800 58.164300 42.213600 0
M  V30 10 R 73.935900 53.865600 41.826800 0
M  V30 END ATOM
M  V30 BEGIN BOND
M  V30 1 1 2 1
M  V30 2 1 3 2
M  V30 3 1 4 1
M  V30 4 1 4 3
M  V30 5 2 5 4
M  V30 6 1 1 6 CFG=3
M  V30 7 1 7 2
M  V30 8 1 8 2
M  V30 9 1 9 3
M  V30 10 1 10 1
M  V30 END BOND
M  V30 END CTAB
M  END
$$$$
R-group 661 (25435-3)
     RDKit          3D

  0  0  0  0  0  0  0  0  0  0999 V3000
M  V30 BEGIN CTAB
M  V30 COUNTS 19 19 0 0 1
M  V30 BEGIN ATOM
M  V30 1 C 74.205100 55.227900 42.761600 0 CFG=2
M  V30 2 C 73.272400 56.386000 42.418100 0
M  V30 3 C 74.163700 57.597800 42.198100 0
M  V30 4 C 75.324400 56.957800 41.431500 0 CFG=2
M  V30 5 C 76.596000 57.789900 41.325000 0
M  V30 6 O 74.872100 56.633200 40.125600 0
M  V30 7 C 75.568300 55.667700 42.214300 0
M  V30 8 H 74.297000 55.258500 43.846900 0
M  V30 9 H 72.872200 56.196200 41.434700 0
M  V30 10 H 72.475100 56.535900 43.148000 0
M  V30 11 H 73.665200 58.397200 41.648900 0
M  V30 12 H 74.476800 57.997900 43.163100 0
M  V30 13 H 76.963000 58.033900 42.320900 0
M  V30 14 H 77.357500 57.258900 40.770200 0
M  V30 15 H 76.472200 58.722000 40.795300 0
M  V30 16 H 76.212900 55.885000 43.066800 0
M  V30 17 H 76.072000 54.913800 41.624300 0
M  V30 18 H 74.596200 57.424400 39.688000 0
M  V30 19 R 73.738700 53.789300 42.364600 0
M  V30 END ATOM
M  V30 BEGIN BOND
M  V30 1 1 2 1
M  V30 2 1 3 2
M  V30 3 1 4 3
M  V30 4 1 5 4
M  V30 5 1 4 6 CFG=3
M  V30 6 1 7 1
M  V30 7 1 7 4
M  V30 8 1 1 8 CFG=1
M  V30 9 1 9 2
M  V30 10 1 10 2
M  V30 11 1 11 3
M  V30 12 1 12 3
M  V30 13 1 13 5
M  V30 14 1 14 5
M  V30 15 1 15 5
M  V30 16 1 16 7
M  V30 17 1 17 7
M  V30 18 1 18 6
M  V30 19 1 19 1
M  V30 END BOND
M  V30 END CTAB
M  END
$$$$
R-group 662 (10715-1)
     RDKit          3D

  0  0  0  0  0  0  0  0  0  0999 V3000
M  V30 BEGIN CTAB
M  V30 COUNTS 14 13 0 0 1
M  V30 BEGIN ATOM
M  V30 1 C 74.530700 55.240100 41.828000 0
M  V30 2 C 73.652500 56.350100 41.208000 0 CFG=1
M  V30 3 C 73.273400 57.438800 42.226700 0
M  V30 4 C 74.219500 56.942700 39.910100 0
M  V30 5 F 74.072200 56.058500 38.925600 0
M  V30 6 H 75.485700 55.187900 41.304300 0
M  V30 7 H 74.801100 55.530600 42.844400 0
M  V30 8 H 72.737200 55.875300 40.895800 0
M  V30 9 H 74.127400 58.051600 42.505100 0
M  V30 10 H 72.510500 58.105000 41.823200 0
M  V30 11 H 72.873300 56.999000 43.141100 0
M  V30 12 H 75.275800 57.201800 39.990800 0
M  V30 13 H 73.673100 57.832300 39.594600 0
M  V30 14 R 73.875800 53.829000 41.874200 0
M  V30 END ATOM
M  V30 BEGIN BOND
M  V30 1 1 2 1
M  V30 2 1 3 2
M  V30 3 1 4 2
M  V30 4 1 5 4
M  V30 5 1 6 1
M  V30 6 1 7 1
M  V30 7 1 2 8 CFG=3
M  V30 8 1 9 3
M  V30 9 1 10 3
M  V30 10 1 11 3
M  V30 11 1 12 4
M  V30 12 1 13 4
M  V30 13 1 14 1
M  V30 END BOND
M  V30 END CTAB
M  END
$$$$
R-group 663 (17731-2)
     RDKit          3D

  0  0  0  0  0  0  0  0  0  0999 V3000
M  V30 BEGIN CTAB
M  V30 COUNTS 16 16 0 0 1
M  V30 BEGIN ATOM
M  V30 1 O 73.919600 54.817200 41.984200 0
M  V30 2 C 73.642200 55.623900 43.113400 0
M  V30 3 C 74.228500 56.993500 42.875200 0 CFG=1
M  V30 4 O 75.672200 56.857900 42.834000 0
M  V30 5 C 75.676300 57.252100 41.441200 0
M  V30 6 C 74.200900 57.656000 41.504500 0 CFG=1
M  V30 7 N 73.272200 57.257900 40.429300 0
M  V30 8 H 72.565700 55.684400 43.273600 0
M  V30 9 H 74.083900 55.221500 44.017900 0
M  V30 10 H 73.927800 57.703900 43.645300 0
M  V30 11 H 75.866600 56.399400 40.786300 0
M  V30 12 H 76.376100 58.059500 41.232300 0
M  V30 13 H 74.072200 58.711800 41.724700 0
M  V30 14 H 72.321500 57.536100 40.660600 0
M  V30 15 H 73.516200 57.717100 39.550900 0
M  V30 16 R 73.542900 53.456700 42.060600 0
M  V30 END ATOM
M  V30 BEGIN BOND
M  V30 1 1 2 1
M  V30 2 1 3 2
M  V30 3 1 4 3
M  V30 4 1 5 4
M  V30 5 1 6 3
M  V30 6 1 6 5
M  V30 7 1 7 6
M  V30 8 1 8 2
M  V30 9 1 9 2
M  V30 10 1 3 10 CFG=1
M  V30 11 1 11 5
M  V30 12 1 12 5
M  V30 13 1 6 13 CFG=1
M  V30 14 1 14 7
M  V30 15 1 15 7
M  V30 16 1 16 1
M  V30 END BOND
M  V30 END CTAB
M  END
$$$$
R-group 664 (4060-1)
     RDKit          3D

  0  0  0  0  0  0  0  0  0  0999 V3000
M  V30 BEGIN CTAB
M  V30 COUNTS 16 17 0 0 1
M  V30 BEGIN ATOM
M  V30 1 C 73.794600 54.908400 41.659400 0 CFG=1
M  V30 2 C 73.152500 55.712900 40.498600 0
M  V30 3 C 73.025400 57.115600 41.018200 0 CFG=2
M  V30 4 C 74.155000 57.804700 41.725300 0
M  V30 5 C 73.137600 57.066900 42.518200 0 CFG=2
M  V30 6 C 73.337800 55.645000 42.925800 0
M  V30 7 H 74.870900 55.058100 41.563500 0
M  V30 8 H 73.754900 55.702500 39.589600 0
M  V30 9 H 72.151900 55.358000 40.248900 0
M  V30 10 H 72.281000 57.755800 40.548000 0
M  V30 11 H 75.163100 57.396200 41.638100 0
M  V30 12 H 74.071800 58.857400 41.837800 0
M  V30 13 H 72.473700 57.670400 43.131700 0
M  V30 14 H 72.373300 55.269600 43.267200 0
M  V30 15 H 74.071200 55.569300 43.727200 0
M  V30 16 R 73.532000 53.389400 41.713100 0
M  V30 END ATOM
M  V30 BEGIN BOND
M  V30 1 1 2 1
M  V30 2 1 3 2
M  V30 3 1 4 3
M  V30 4 1 5 3
M  V30 5 1 5 4
M  V30 6 1 6 1
M  V30 7 1 6 5
M  V30 8 1 1 7 CFG=3
M  V30 9 1 8 2
M  V30 10 1 9 2
M  V30 11 1 3 10 CFG=1
M  V30 12 1 11 4
M  V30 13 1 12 4
M  V30 14 1 5 13 CFG=1
M  V30 15 1 14 6
M  V30 16 1 15 6
M  V30 17 1 16 1
M  V30 END BOND
M  V30 END CTAB
M  END
$$$$
R-group 665 (3446-1)
     RDKit          3D

  0  0  0  0  0  0  0  0  0  0999 V3000
M  V30 BEGIN CTAB
M  V30 COUNTS 14 14 0 0 1
M  V30 BEGIN ATOM
M  V30 1 N 72.680500 54.042100 42.503900 0
M  V30 2 C 73.422600 55.239000 42.909400 0
M  V30 3 C 74.071700 55.961600 41.774600 0
M  V30 4 C 73.477000 56.353200 40.532200 0
M  V30 5 C 74.472700 56.858000 39.777200 0
M  V30 6 O 75.643400 56.857600 40.497700 0
M  V30 7 C 75.372700 56.343400 41.709600 0
M  V30 8 H 72.250000 53.729600 43.371400 0
M  V30 9 H 72.711500 55.933800 43.349200 0
M  V30 10 H 74.161900 55.020100 43.678200 0
M  V30 11 H 72.454600 56.223700 40.212600 0
M  V30 12 H 74.509500 57.251800 38.774400 0
M  V30 13 H 76.214700 56.275100 42.380900 0
M  V30 14 R 73.383000 52.949400 41.852200 0
M  V30 END ATOM
M  V30 BEGIN BOND
M  V30 1 1 2 1
M  V30 2 1 3 2
M  V30 3 1 4 3
M  V30 4 2 5 4
M  V30 5 1 6 5
M  V30 6 2 7 3
M  V30 7 1 7 6
M  V30 8 1 8 1
M  V30 9 1 9 2
M  V30 10 1 10 2
M  V30 11 1 11 4
M  V30 12 1 12 5
M  V30 13 1 13 7
M  V30 14 1 14 1
M  V30 END BOND
M  V30 END CTAB
M  END
$$$$
R-group 666 (7769-2)
     RDKit          3D

  0  0  0  0  0  0  0  0  0  0999 V3000
M  V30 BEGIN CTAB
M  V30 COUNTS 14 14 0 0 1
M  V30 BEGIN ATOM
M  V30 1 O 73.524700 54.819300 42.444600 0
M  V30 2 C 73.936500 55.976900 41.737200 0 CFG=1
M  V30 3 C 73.961000 57.084600 42.773000 0
M  V30 4 C 75.412600 57.070500 43.230900 0
M  V30 5 O 76.090700 56.869200 42.009400 0
M  V30 6 C 75.390800 55.916500 41.244200 0
M  V30 7 H 73.236200 56.204000 40.932600 0
M  V30 8 H 73.738200 58.041300 42.298800 0
M  V30 9 H 73.248100 56.939900 43.585400 0
M  V30 10 H 75.672700 58.005500 43.724700 0
M  V30 11 H 75.671900 56.235800 43.887000 0
M  V30 12 H 75.840000 54.939400 41.398700 0
M  V30 13 H 75.481600 56.170100 40.186900 0
M  V30 14 R 73.586500 53.529500 41.851000 0
M  V30 END ATOM
M  V30 BEGIN BOND
M  V30 1 1 2 1
M  V30 2 1 3 2
M  V30 3 1 4 3
M  V30 4 1 5 4
M  V30 5 1 6 2
M  V30 6 1 6 5
M  V30 7 1 2 7 CFG=3
M  V30 8 1 8 3
M  V30 9 1 9 3
M  V30 10 1 10 4
M  V30 11 1 11 4
M  V30 12 1 12 6
M  V30 13 1 13 6
M  V30 14 1 14 1
M  V30 END BOND
M  V30 END CTAB
M  END
$$$$
R-group 667 (2458-1)
     RDKit          3D

  0  0  0  0  0  0  0  0  0  0999 V3000
M  V30 BEGIN CTAB
M  V30 COUNTS 15 15 0 0 1
M  V30 BEGIN ATOM
M  V30 1 C 74.199800 54.951800 41.702900 0
M  V30 2 C 75.272900 55.500500 40.949300 0
M  V30 3 C 75.484200 56.738100 41.488800 0
M  V30 4 C 76.632400 57.687500 41.330100 0
M  V30 5 N 74.415400 56.914100 42.338100 0
M  V30 6 C 73.999400 58.058200 43.066300 0
M  V30 7 N 73.672300 55.828000 42.501600 0
M  V30 8 H 75.929500 55.018100 40.237200 0
M  V30 9 H 77.466700 57.258000 40.803200 0
M  V30 10 H 76.471900 58.546100 40.696900 0
M  V30 11 H 76.972800 58.040200 42.300600 0
M  V30 12 H 74.811400 58.395900 43.724400 0
M  V30 13 H 73.710700 58.837900 42.336200 0
M  V30 14 H 73.130400 57.838500 43.700000 0
M  V30 15 R 73.688200 53.552600 41.793500 0
M  V30 END ATOM
M  V30 BEGIN BOND
M  V30 1 1 2 1
M  V30 2 2 3 2
M  V30 3 1 4 3
M  V30 4 1 5 3
M  V30 5 1 6 5
M  V30 6 2 7 1
M  V30 7 1 7 5
M  V30 8 1 8 2
M  V30 9 1 9 4
M  V30 10 1 10 4
M  V30 11 1 11 4
M  V30 12 1 12 6
M  V30 13 1 13 6
M  V30 14 1 14 6
M  V30 15 1 15 1
M  V30 END BOND
M  V30 END CTAB
M  END
$$$$
R-group 668 (4948-1)
     RDKit          3D

  0  0  0  0  0  0  0  0  0  0999 V3000
M  V30 BEGIN CTAB
M  V30 COUNTS 20 19 0 0 1
M  V30 BEGIN ATOM
M  V30 1 C 73.935200 57.212100 39.426900 0
M  V30 2 C 73.753000 57.411400 40.930000 0
M  V30 3 C 74.874400 56.749300 41.737400 0 CFG=1
M  V30 4 C 74.781000 57.054700 43.219300 0
M  V30 5 C 74.874400 55.231700 41.566600 0
M  V30 6 C 73.502400 54.601200 41.922000 0
M  V30 7 H 73.090400 57.658200 38.924400 0
M  V30 8 H 73.932900 56.163200 39.136300 0
M  V30 9 H 74.868700 57.657800 39.070300 0
M  V30 10 H 73.669900 58.458400 41.180700 0
M  V30 11 H 72.777900 57.048300 41.225000 0
M  V30 12 H 75.835100 57.127500 41.385200 0
M  V30 13 H 73.762300 56.925500 43.594700 0
M  V30 14 H 75.462500 56.378300 43.724300 0
M  V30 15 H 75.102100 58.046200 43.474500 0
M  V30 16 H 75.180000 55.017600 40.554000 0
M  V30 17 H 75.670600 54.807000 42.177900 0
M  V30 18 H 73.198200 54.899100 42.924600 0
M  V30 19 H 72.732200 54.953600 41.245400 0
M  V30 20 R 73.422100 53.090200 41.845100 0
M  V30 END ATOM
M  V30 BEGIN BOND
M  V30 1 1 2 1
M  V30 2 1 3 2
M  V30 3 1 4 3
M  V30 4 1 5 3
M  V30 5 1 6 5
M  V30 6 1 7 1
M  V30 7 1 8 1
M  V30 8 1 9 1
M  V30 9 1 10 2
M  V30 10 1 11 2
M  V30 11 1 3 12 CFG=3
M  V30 12 1 13 4
M  V30 13 1 14 4
M  V30 14 1 15 4
M  V30 15 1 16 5
M  V30 16 1 17 5
M  V30 17 1 18 6
M  V30 18 1 19 6
M  V30 19 1 20 6
M  V30 END BOND
M  V30 END CTAB
M  END
$$$$
R-group 669 (10967-1)
     RDKit          3D

  0  0  0  0  0  0  0  0  0  0999 V3000
M  V30 BEGIN CTAB
M  V30 COUNTS 14 14 0 0 1
M  V30 BEGIN ATOM
M  V30 1 C 73.108200 54.550300 42.286600 0
M  V30 2 C 74.030900 55.593500 41.830200 0
M  V30 3 S 75.295500 56.057700 42.913100 0
M  V30 4 C 76.058100 56.857800 41.584100 0
M  V30 5 N 75.319100 56.857800 40.483600 0
M  V30 6 C 74.074400 56.290500 40.653800 0
M  V30 7 C 73.058900 56.386500 39.552300 0
M  V30 8 H 72.074600 54.837700 42.179900 0
M  V30 9 H 73.269100 54.541800 43.324700 0
M  V30 10 H 77.026600 57.332100 41.609900 0
M  V30 11 H 72.049000 56.465200 39.954000 0
M  V30 12 H 73.231200 57.265800 38.931800 0
M  V30 13 H 73.092300 55.522700 38.893200 0
M  V30 14 R 73.423900 53.139700 41.771400 0
M  V30 END ATOM
M  V30 BEGIN BOND
M  V30 1 1 2 1
M  V30 2 1 3 2
M  V30 3 1 4 3
M  V30 4 2 5 4
M  V30 5 2 6 2
M  V30 6 1 6 5
M  V30 7 1 7 6
M  V30 8 1 8 1
M  V30 9 1 9 1
M  V30 10 1 10 4
M  V30 11 1 11 7
M  V30 12 1 12 7
M  V30 13 1 13 7
M  V30 14 1 14 1
M  V30 END BOND
M  V30 END CTAB
M  END
$$$$
R-group 670 (9590-1)
     RDKit          3D

  0  0  0  0  0  0  0  0  0  0999 V3000
M  V30 BEGIN CTAB
M  V30 COUNTS 11 10 0 0 1
M  V30 BEGIN ATOM
M  V30 1 C 74.014900 55.287700 41.801200 0
M  V30 2 C 75.506400 55.621700 41.570600 0
M  V30 3 F 75.653900 56.858000 41.108200 0
M  V30 4 C 73.517900 55.985400 43.072600 0
M  V30 5 F 73.638000 57.304500 42.924800 0
M  V30 6 H 73.455600 55.733900 40.977400 0
M  V30 7 H 76.072200 55.575000 42.498900 0
M  V30 8 H 75.990600 54.982000 40.841000 0
M  V30 9 H 72.471600 55.779700 43.295400 0
M  V30 10 H 74.089300 55.658100 43.940200 0
M  V30 11 R 73.680800 53.766000 41.816000 0
M  V30 END ATOM
M  V30 BEGIN BOND
M  V30 1 1 2 1
M  V30 2 1 3 2
M  V30 3 1 4 1
M  V30 4 1 5 4
M  V30 5 1 6 1
M  V30 6 1 7 2
M  V30 7 1 8 2
M  V30 8 1 9 4
M  V30 9 1 10 4
M  V30 10 1 11 1
M  V30 END BOND
M  V30 END CTAB
M  END
$$$$
R-group 671 (10895-2)
     RDKit          3D

  0  0  0  0  0  0  0  0  0  0999 V3000
M  V30 BEGIN CTAB
M  V30 COUNTS 15 14 0 0 1
M  V30 BEGIN ATOM
M  V30 1 C 73.599300 55.057300 41.617700 0 CFG=1
M  V30 2 C 73.117700 55.696000 42.925400 0
M  V30 3 C 74.967100 55.562000 41.084300 0
M  V30 4 C 75.405400 56.948000 41.540400 0
M  V30 5 O 75.769100 56.858000 42.892300 0
M  V30 6 H 72.872200 55.416300 40.889700 0
M  V30 7 H 73.826100 55.515500 43.724400 0
M  V30 8 H 72.982200 56.773500 42.829100 0
M  V30 9 H 72.152500 55.296000 43.244600 0
M  V30 10 H 75.762600 54.859500 41.319900 0
M  V30 11 H 74.910500 55.603100 39.996100 0
M  V30 12 H 76.266800 57.293000 40.966000 0
M  V30 13 H 74.602300 57.666500 41.404100 0
M  V30 14 H 75.008800 56.588600 43.385400 0
M  V30 15 R 73.473600 53.504700 41.661900 0
M  V30 END ATOM
M  V30 BEGIN BOND
M  V30 1 1 2 1
M  V30 2 1 3 1
M  V30 3 1 4 3
M  V30 4 1 5 4
M  V30 5 1 1 6 CFG=3
M  V30 6 1 7 2
M  V30 7 1 8 2
M  V30 8 1 9 2
M  V30 9 1 10 3
M  V30 10 1 11 3
M  V30 11 1 12 4
M  V30 12 1 13 4
M  V30 13 1 14 5
M  V30 14 1 15 1
M  V30 END BOND
M  V30 END CTAB
M  END
$$$$
R-group 672 (16250-4)
     RDKit          3D

  0  0  0  0  0  0  0  0  0  0999 V3000
M  V30 BEGIN CTAB
M  V30 COUNTS 9 9 0 0 1
M  V30 BEGIN ATOM
M  V30 1 C 73.765500 55.308800 42.368300 0 CFG=2
M  V30 2 C 73.493000 56.579000 41.575800 0
M  V30 3 C 74.850700 56.350800 42.183700 0 CFG=2
M  V30 4 F 75.863300 56.108000 41.279900 0
M  V30 5 H 73.272200 55.323100 43.324700 0
M  V30 6 H 73.424500 56.535200 40.491000 0
M  V30 7 H 72.872300 57.339700 42.044800 0
M  V30 8 H 75.184500 56.962900 43.020100 0
M  V30 9 R 73.786800 53.892400 41.771100 0
M  V30 END ATOM
M  V30 BEGIN BOND
M  V30 1 1 2 1
M  V30 2 1 3 1
M  V30 3 1 3 2
M  V30 4 1 4 3
M  V30 5 1 1 5 CFG=1
M  V30 6 1 6 2
M  V30 7 1 7 2
M  V30 8 1 3 8 CFG=1
M  V30 9 1 9 1
M  V30 END BOND
M  V30 END CTAB
M  END
$$$$
R-group 673 (14273-1)
     RDKit          3D

  0  0  0  0  0  0  0  0  0  0999 V3000
M  V30 BEGIN CTAB
M  V30 COUNTS 12 12 0 0 1
M  V30 BEGIN ATOM
M  V30 1 C 74.162000 54.716700 41.852400 0
M  V30 2 C 73.672200 55.674500 42.638500 0
M  V30 3 C 74.431600 56.813600 42.428900 0
M  V30 4 C 74.061500 58.058300 43.096000 0
M  V30 5 C 75.416100 56.463400 41.547500 0
M  V30 6 O 75.270200 55.161100 41.189200 0
M  V30 7 H 72.831600 55.586100 43.316400 0
M  V30 8 H 73.196300 57.916700 43.747700 0
M  V30 9 H 74.867100 58.457100 43.717600 0
M  V30 10 H 73.765600 58.757100 42.311900 0
M  V30 11 H 76.242000 56.986000 41.083100 0
M  V30 12 R 73.726000 53.319200 41.766800 0
M  V30 END ATOM
M  V30 BEGIN BOND
M  V30 1 2 2 1
M  V30 2 1 3 2
M  V30 3 1 4 3
M  V30 4 2 5 3
M  V30 5 1 6 1
M  V30 6 1 6 5
M  V30 7 1 7 2
M  V30 8 1 8 4
M  V30 9 1 9 4
M  V30 10 1 10 4
M  V30 11 1 11 5
M  V30 12 1 12 1
M  V30 END BOND
M  V30 END CTAB
M  END
$$$$
R-group 674 (18312-1)
     RDKit          3D

  0  0  0  0  0  0  0  0  0  0999 V3000
M  V30 BEGIN CTAB
M  V30 COUNTS 20 20 0 0 1
M  V30 BEGIN ATOM
M  V30 1 C 74.051400 55.303600 41.768700 0
M  V30 2 C 75.598600 55.562100 41.679300 0
M  V30 3 O 76.061200 56.827300 41.239100 0
M  V30 4 C 73.278600 55.875200 40.557900 0
M  V30 5 C 73.227100 57.387900 40.503500 0
M  V30 6 O 72.881900 58.053200 41.724700 0
M  V30 7 C 73.538200 57.569500 42.898100 0
M  V30 8 C 73.502300 56.028200 43.019600 0
M  V30 9 H 76.042600 55.405600 42.657300 0
M  V30 10 H 76.071800 54.849300 41.018400 0
M  V30 11 H 73.725600 55.537300 39.623800 0
M  V30 12 H 72.257000 55.513100 40.521700 0
M  V30 13 H 74.177500 57.658800 40.074300 0
M  V30 14 H 72.476700 57.645100 39.771000 0
M  V30 15 H 74.555600 57.937100 42.937900 0
M  V30 16 H 73.039800 58.015300 43.758000 0
M  V30 17 H 72.469700 55.751900 43.223600 0
M  V30 18 H 74.055600 55.661000 43.887700 0
M  V30 19 H 76.995600 56.795400 41.135700 0
M  V30 20 R 73.728300 53.752700 41.883800 0
M  V30 END ATOM
M  V30 BEGIN BOND
M  V30 1 1 2 1
M  V30 2 1 3 2
M  V30 3 1 4 1
M  V30 4 1 5 4
M  V30 5 1 6 5
M  V30 6 1 7 6
M  V30 7 1 8 1
M  V30 8 1 8 7
M  V30 9 1 9 2
M  V30 10 1 10 2
M  V30 11 1 11 4
M  V30 12 1 12 4
M  V30 13 1 13 5
M  V30 14 1 14 5
M  V30 15 1 15 7
M  V30 16 1 16 7
M  V30 17 1 17 8
M  V30 18 1 18 8
M  V30 19 1 19 3
M  V30 20 1 20 1
M  V30 END BOND
M  V30 END CTAB
M  END
$$$$
R-group 675 (41118-1)
     RDKit          3D

  0  0  0  0  0  0  0  0  0  0999 V3000
M  V30 BEGIN CTAB
M  V30 COUNTS 17 17 0 0 1
M  V30 BEGIN ATOM
M  V30 1 O 73.796300 54.890900 41.736900 0
M  V30 2 C 73.272600 55.593500 42.843300 0
M  V30 3 C 73.717000 57.048000 42.845200 0 CFG=2
M  V30 4 O 73.273600 57.658000 41.657500 0
M  V30 5 C 75.213100 57.229800 43.064600 0
M  V30 6 C 76.126300 56.060100 43.347000 0
M  V30 7 C 76.261900 56.824500 42.052600 0
M  V30 8 H 72.205200 55.436000 42.958400 0
M  V30 9 H 73.723800 55.193200 43.724700 0
M  V30 10 H 73.209700 57.548300 43.671500 0
M  V30 11 H 75.441000 58.055400 43.724300 0
M  V30 12 H 76.868000 56.203500 44.124900 0
M  V30 13 H 75.758000 55.047400 43.275500 0
M  V30 14 H 75.933400 56.327200 41.142400 0
M  V30 15 H 77.112400 57.492500 41.932000 0
M  V30 16 H 73.641900 57.166800 40.934900 0
M  V30 17 R 73.503200 53.504500 41.765700 0
M  V30 END ATOM
M  V30 BEGIN BOND
M  V30 1 1 2 1
M  V30 2 1 3 2
M  V30 3 1 4 3
M  V30 4 1 5 3
M  V30 5 1 6 5
M  V30 6 1 7 5
M  V30 7 1 7 6
M  V30 8 1 8 2
M  V30 9 1 9 2
M  V30 10 1 3 10 CFG=1
M  V30 11 1 11 5
M  V30 12 1 12 6
M  V30 13 1 13 6
M  V30 14 1 14 7
M  V30 15 1 15 7
M  V30 16 1 16 4
M  V30 17 1 17 1
M  V30 END BOND
M  V30 END CTAB
M  END
$$$$
R-group 676 (1917-1)
     RDKit          3D

  0  0  0  0  0  0  0  0  0  0999 V3000
M  V30 BEGIN CTAB
M  V30 COUNTS 11 10 0 0 1
M  V30 BEGIN ATOM
M  V30 1 C 73.758100 55.311800 42.850400 0
M  V30 2 C 74.518500 56.518800 42.253600 0 CFG=1
M  V30 3 C 76.041900 56.374100 42.160600 0
M  V30 4 F 74.016600 56.860300 41.068300 0
M  V30 5 H 72.711700 55.606400 42.924800 0
M  V30 6 H 74.072300 55.249000 43.887500 0
M  V30 7 H 74.313000 57.378800 42.892400 0
M  V30 8 H 76.471500 56.058200 43.111100 0
M  V30 9 H 76.335900 55.658200 41.396400 0
M  V30 10 H 76.502000 57.324900 41.890400 0
M  V30 11 R 73.792700 53.912200 42.140500 0
M  V30 END ATOM
M  V30 BEGIN BOND
M  V30 1 1 2 1
M  V30 2 1 3 2
M  V30 3 1 4 2
M  V30 4 1 5 1
M  V30 5 1 6 1
M  V30 6 1 2 7 CFG=1
M  V30 7 1 8 3
M  V30 8 1 9 3
M  V30 9 1 10 3
M  V30 10 1 11 1
M  V30 END BOND
M  V30 END CTAB
M  END
$$$$
R-group 677 (41097-1)
     RDKit          3D

  0  0  0  0  0  0  0  0  0  0999 V3000
M  V30 BEGIN CTAB
M  V30 COUNTS 16 15 0 0 1
M  V30 BEGIN ATOM
M  V30 1 O 73.796800 54.822900 42.344300 0
M  V30 2 C 75.125000 55.309400 42.182800 0
M  V30 3 C 75.030900 56.766300 41.738500 0
M  V30 4 C 74.463500 57.589700 42.901400 0
M  V30 5 C 76.421900 57.274100 41.295800 0
M  V30 6 C 74.093400 56.821500 40.606000 0
M  V30 7 N 73.349200 56.856400 39.724900 0
M  V30 8 H 75.672400 54.742800 41.437900 0
M  V30 9 H 75.671900 55.216900 43.120500 0
M  V30 10 H 75.211800 57.792600 43.671100 0
M  V30 11 H 74.068100 58.522600 42.522300 0
M  V30 12 H 73.618000 57.089400 43.375100 0
M  V30 13 H 77.130900 57.255800 42.117600 0
M  V30 14 H 76.828700 56.652500 40.499000 0
M  V30 15 H 76.416600 58.296800 40.924700 0
M  V30 16 R 73.554000 53.441600 42.112400 0
M  V30 END ATOM
M  V30 BEGIN BOND
M  V30 1 1 2 1
M  V30 2 1 3 2
M  V30 3 1 4 3
M  V30 4 1 5 3
M  V30 5 1 6 3
M  V30 6 3 7 6
M  V30 7 1 8 2
M  V30 8 1 9 2
M  V30 9 1 10 4
M  V30 10 1 11 4
M  V30 11 1 12 4
M  V30 12 1 13 5
M  V30 13 1 14 5
M  V30 14 1 15 5
M  V30 15 1 16 1
M  V30 END BOND
M  V30 END CTAB
M  END
$$$$
R-group 678 (5737-1)
     RDKit          3D

  0  0  0  0  0  0  0  0  0  0999 V3000
M  V30 BEGIN CTAB
M  V30 COUNTS 19 19 0 0 1
M  V30 BEGIN ATOM
M  V30 1 C 73.866700 55.017000 42.076600 0
M  V30 2 C 74.755700 55.699000 41.333100 0
M  V30 3 C 75.048800 57.164500 41.533700 0 CFG=2
M  V30 4 C 76.544000 57.409700 41.323900 0
M  V30 5 C 74.526900 57.583000 42.923800 0
M  V30 6 C 73.072000 57.212500 43.057100 0
M  V30 7 C 73.093500 55.723300 43.184000 0
M  V30 8 H 75.338000 55.220600 40.570500 0
M  V30 9 H 74.477900 57.657800 40.752100 0
M  V30 10 H 76.872700 57.008000 40.365900 0
M  V30 11 H 76.809700 58.458000 41.324700 0
M  V30 12 H 77.118200 56.925900 42.107000 0
M  V30 13 H 75.184100 57.153000 43.681900 0
M  V30 14 H 74.472300 58.595200 43.190900 0
M  V30 15 H 72.496800 57.563800 42.199000 0
M  V30 16 H 72.630700 57.657000 43.950900 0
M  V30 17 H 72.081900 55.333900 43.318700 0
M  V30 18 H 73.672300 55.658000 44.107400 0
M  V30 19 R 73.580000 53.534500 41.894200 0
M  V30 END ATOM
M  V30 BEGIN BOND
M  V30 1 2 2 1
M  V30 2 1 3 2
M  V30 3 1 4 3
M  V30 4 1 5 3
M  V30 5 1 6 5
M  V30 6 1 7 1
M  V30 7 1 7 6
M  V30 8 1 8 2
M  V30 9 1 3 9 CFG=3
M  V30 10 1 10 4
M  V30 11 1 11 4
M  V30 12 1 12 4
M  V30 13 1 13 5
M  V30 14 1 14 5
M  V30 15 1 15 6
M  V30 16 1 16 6
M  V30 17 1 17 7
M  V30 18 1 18 7
M  V30 19 1 19 1
M  V30 END BOND
M  V30 END CTAB
M  END
$$$$
R-group 679 (10205-2)
     RDKit          3D

  0  0  0  0  0  0  0  0  0  0999 V3000
M  V30 BEGIN CTAB
M  V30 COUNTS 15 14 0 0 1
M  V30 BEGIN ATOM
M  V30 1 C 73.768900 54.882200 41.985500 0
M  V30 2 C 74.905900 55.547600 41.194500 0
M  V30 3 C 75.122800 56.985900 41.647900 0 CFG=2
M  V30 4 O 75.673100 56.858000 42.925600 0
M  V30 5 C 73.805600 57.781400 41.691600 0
M  V30 6 F 73.244600 57.657600 40.493600 0
M  V30 7 H 72.872600 55.340900 41.623600 0
M  V30 8 H 73.825000 55.123900 43.047400 0
M  V30 9 H 75.830800 54.983000 41.288600 0
M  V30 10 H 74.650700 55.570200 40.135500 0
M  V30 11 H 75.845800 57.473800 40.992200 0
M  V30 12 H 73.098800 57.398600 42.428000 0
M  V30 13 H 73.912400 58.842000 41.900400 0
M  V30 14 H 75.960600 57.704600 43.240300 0
M  V30 15 R 73.586900 53.383700 41.809800 0
M  V30 END ATOM
M  V30 BEGIN BOND
M  V30 1 1 2 1
M  V30 2 1 3 2
M  V30 3 1 4 3
M  V30 4 1 5 3
M  V30 5 1 6 5
M  V30 6 1 7 1
M  V30 7 1 8 1
M  V30 8 1 9 2
M  V30 9 1 10 2
M  V30 10 1 3 11 CFG=3
M  V30 11 1 12 5
M  V30 12 1 13 5
M  V30 13 1 14 4
M  V30 14 1 15 1
M  V30 END BOND
M  V30 END CTAB
M  END
$$$$
R-group 680 (36588-2)
     RDKit          3D

  0  0  0  0  0  0  0  0  0  0999 V3000
M  V30 BEGIN CTAB
M  V30 COUNTS 16 16 0 0 1
M  V30 BEGIN ATOM
M  V30 1 C 74.027800 55.260900 42.369200 0 CFG=1
M  V30 2 C 75.237000 55.845800 43.097100 0
M  V30 3 C 75.178400 55.880100 41.597000 0 CFG=2
M  V30 4 C 74.971300 57.192200 40.867800 0
M  V30 5 C 74.255900 57.026300 39.518300 0
M  V30 6 O 72.977500 56.465800 39.724500 0
M  V30 7 H 73.134800 55.875600 42.454900 0
M  V30 8 H 75.172700 56.823100 43.564800 0
M  V30 9 H 75.964100 55.187900 43.560200 0
M  V30 10 H 75.895800 55.223400 41.114800 0
M  V30 11 H 74.393000 57.863600 41.504900 0
M  V30 12 H 75.946700 57.657800 40.720500 0
M  V30 13 H 74.135600 57.988600 39.019200 0
M  V30 14 H 74.833400 56.392600 38.847900 0
M  V30 15 H 73.089100 55.655200 40.198300 0
M  V30 16 R 73.678900 53.765500 42.264600 0
M  V30 END ATOM
M  V30 BEGIN BOND
M  V30 1 1 2 1
M  V30 2 1 3 1
M  V30 3 1 3 2
M  V30 4 1 4 3
M  V30 5 1 5 4
M  V30 6 1 6 5
M  V30 7 1 1 7 CFG=1
M  V30 8 1 8 2
M  V30 9 1 9 2
M  V30 10 1 3 10 CFG=3
M  V30 11 1 11 4
M  V30 12 1 12 4
M  V30 13 1 13 5
M  V30 14 1 14 5
M  V30 15 1 15 6
M  V30 16 1 16 1
M  V30 END BOND
M  V30 END CTAB
M  END
$$$$
R-group 681 (6755-2)
     RDKit          3D

  0  0  0  0  0  0  0  0  0  0999 V3000
M  V30 BEGIN CTAB
M  V30 COUNTS 12 12 0 0 1
M  V30 BEGIN ATOM
M  V30 1 C 73.729900 54.999300 41.992300 0 CFG=1
M  V30 2 C 73.839900 55.756000 43.324300 0
M  V30 3 C 74.573200 56.845700 42.553600 0 CFG=2
M  V30 4 F 73.672400 57.662100 42.014400 0
M  V30 5 C 74.994900 55.759500 41.560400 0
M  V30 6 H 72.887800 55.425600 41.445700 0
M  V30 7 H 72.880400 56.066200 43.734100 0
M  V30 8 H 74.471200 55.273600 44.071800 0
M  V30 9 H 75.364700 57.373100 43.088700 0
M  V30 10 H 75.923300 55.263100 41.840400 0
M  V30 11 H 75.012400 56.085100 40.519600 0
M  V30 12 R 73.601500 53.480000 41.919200 0
M  V30 END ATOM
M  V30 BEGIN BOND
M  V30 1 1 2 1
M  V30 2 1 3 2
M  V30 3 1 4 3
M  V30 4 1 5 1
M  V30 5 1 5 3
M  V30 6 1 1 6 CFG=3
M  V30 7 1 7 2
M  V30 8 1 8 2
M  V30 9 1 3 9 CFG=1
M  V30 10 1 10 5
M  V30 11 1 11 5
M  V30 12 1 12 1
M  V30 END BOND
M  V30 END CTAB
M  END
$$$$
R-group 682 (11054-1)
     RDKit          3D

  0  0  0  0  0  0  0  0  0  0999 V3000
M  V30 BEGIN CTAB
M  V30 COUNTS 10 10 0 0 1
M  V30 BEGIN ATOM
M  V30 1 C 73.299400 54.675900 42.524300 0
M  V30 2 C 74.018200 55.790000 41.876300 0
M  V30 3 N 73.674200 56.310000 40.698800 0
M  V30 4 N 74.775600 56.857800 40.106400 0
M  V30 5 C 75.831400 56.860000 40.923200 0
M  V30 6 S 75.490200 56.441100 42.558600 0
M  V30 7 H 72.229300 54.856600 42.586900 0
M  V30 8 H 73.697200 54.724700 43.516900 0
M  V30 9 H 76.764100 57.293900 40.590100 0
M  V30 10 R 73.522200 53.272800 41.915500 0
M  V30 END ATOM
M  V30 BEGIN BOND
M  V30 1 1 2 1
M  V30 2 2 3 2
M  V30 3 1 4 3
M  V30 4 2 5 4
M  V30 5 1 6 2
M  V30 6 1 6 5
M  V30 7 1 7 1
M  V30 8 1 8 1
M  V30 9 1 9 5
M  V30 10 1 10 1
M  V30 END BOND
M  V30 END CTAB
M  END
$$$$
R-group 683 (40812-1)
     RDKit          3D

  0  0  0  0  0  0  0  0  0  0999 V3000
M  V30 BEGIN CTAB
M  V30 COUNTS 7 6 0 0 1
M  V30 BEGIN ATOM
M  V30 1 N 73.743600 55.077400 42.515200 0
M  V30 2 C 74.302200 56.303900 41.966300 0
M  V30 3 F 74.115300 57.259700 42.864500 0
M  V30 4 F 75.608200 56.166300 41.743000 0
M  V30 5 F 73.672300 56.666300 40.850900 0
M  V30 6 H 72.923400 55.197300 43.105400 0
M  V30 7 R 73.803100 53.796400 41.808000 0
M  V30 END ATOM
M  V30 BEGIN BOND
M  V30 1 1 2 1
M  V30 2 1 3 2
M  V30 3 1 4 2
M  V30 4 1 5 2
M  V30 5 1 6 1
M  V30 6 1 7 1
M  V30 END BOND
M  V30 END CTAB
M  END
$$$$
R-group 684 (37892-1)
     RDKit          3D

  0  0  0  0  0  0  0  0  0  0999 V3000
M  V30 BEGIN CTAB
M  V30 COUNTS 22 22 0 0 1
M  V30 BEGIN ATOM
M  V30 1 C 76.780300 57.658100 40.878100 0
M  V30 2 C 75.548800 57.012300 40.264100 0
M  V30 3 C 74.516800 56.551000 41.274900 0 CFG=1
M  V30 4 O 74.016800 57.579700 42.123400 0
M  V30 5 C 73.063900 58.458000 41.550300 0
M  V30 6 C 73.410300 55.656700 40.731800 0
M  V30 7 C 73.541100 54.765600 41.988400 0 CFG=2
M  V30 8 C 74.918200 55.406700 42.199500 0
M  V30 9 H 77.545900 57.869700 40.128600 0
M  V30 10 H 76.475900 58.590700 41.324500 0
M  V30 11 H 77.212600 57.043300 41.664600 0
M  V30 12 H 75.882500 56.136700 39.724900 0
M  V30 13 H 75.094900 57.654600 39.506500 0
M  V30 14 H 73.015200 59.373300 42.124300 0
M  V30 15 H 73.268600 58.677700 40.502200 0
M  V30 16 H 72.072300 58.055200 41.610200 0
M  V30 17 H 73.718800 55.221200 39.790800 0
M  V30 18 H 72.471700 56.147000 40.524500 0
M  V30 19 H 72.873300 55.154100 42.765700 0
M  V30 20 H 75.127900 55.693600 43.231600 0
M  V30 21 H 75.729400 54.815800 41.777500 0
M  V30 22 R 73.427000 53.237200 41.897700 0
M  V30 END ATOM
M  V30 BEGIN BOND
M  V30 1 1 2 1
M  V30 2 1 3 2
M  V30 3 1 3 4 CFG=1
M  V30 4 1 5 4
M  V30 5 1 6 3
M  V30 6 1 7 6
M  V30 7 1 8 3
M  V30 8 1 8 7
M  V30 9 1 9 1
M  V30 10 1 10 1
M  V30 11 1 11 1
M  V30 12 1 12 2
M  V30 13 1 13 2
M  V30 14 1 14 5
M  V30 15 1 15 5
M  V30 16 1 16 5
M  V30 17 1 17 6
M  V30 18 1 18 6
M  V30 19 1 7 19 CFG=1
M  V30 20 1 20 8
M  V30 21 1 21 8
M  V30 22 1 22 7
M  V30 END BOND
M  V30 END CTAB
M  END
$$$$
R-group 685 (11278-2)
     RDKit          3D

  0  0  0  0  0  0  0  0  0  0999 V3000
M  V30 BEGIN CTAB
M  V30 COUNTS 19 19 0 0 1
M  V30 BEGIN ATOM
M  V30 1 C 73.937800 54.906000 41.697000 0 CFG=1
M  V30 2 C 73.254100 55.655400 42.816200 0
M  V30 3 C 73.540800 57.139000 42.676800 0
M  V30 4 O 74.930800 57.257900 42.924500 0
M  V30 5 C 75.826500 56.627000 42.023500 0 CFG=2
M  V30 6 C 76.059900 57.329800 40.691000 0
M  V30 7 C 75.439800 55.174100 41.883300 0
M  V30 8 H 73.610400 55.339700 40.750100 0
M  V30 9 H 72.206900 55.389400 42.925300 0
M  V30 10 H 73.725300 55.330400 43.725200 0
M  V30 11 H 73.260500 57.529400 41.698500 0
M  V30 12 H 72.990800 57.707700 43.428900 0
M  V30 13 H 76.787000 56.653000 42.524500 0
M  V30 14 H 76.821400 56.798000 40.127100 0
M  V30 15 H 75.159600 57.347800 40.077900 0
M  V30 16 H 76.444200 58.336900 40.869500 0
M  V30 17 H 75.672600 54.745900 42.847800 0
M  V30 18 H 76.071000 54.735200 41.120100 0
M  V30 19 R 73.562000 53.401600 41.742600 0
M  V30 END ATOM
M  V30 BEGIN BOND
M  V30 1 1 2 1
M  V30 2 1 3 2
M  V30 3 1 4 3
M  V30 4 1 5 4
M  V30 5 1 6 5
M  V30 6 1 7 1
M  V30 7 1 7 5
M  V30 8 1 1 8 CFG=3
M  V30 9 1 9 2
M  V30 10 1 10 2
M  V30 11 1 11 3
M  V30 12 1 12 3
M  V30 13 1 5 13 CFG=1
M  V30 14 1 14 6
M  V30 15 1 15 6
M  V30 16 1 16 6
M  V30 17 1 17 7
M  V30 18 1 18 7
M  V30 19 1 19 1
M  V30 END BOND
M  V30 END CTAB
M  END
$$$$
R-group 686 (5693-1)
     RDKit          3D

  0  0  0  0  0  0  0  0  0  0999 V3000
M  V30 BEGIN CTAB
M  V30 COUNTS 18 17 0 0 1
M  V30 BEGIN ATOM
M  V30 1 C 73.596800 54.886600 42.177700 0
M  V30 2 C 74.978100 55.531900 41.982800 0
M  V30 3 C 74.904900 56.939400 41.366400 0
M  V30 4 C 74.005000 57.862000 42.216700 0
M  V30 5 C 76.348500 57.456200 41.197200 0
M  V30 6 O 74.331000 56.809300 40.076600 0
M  V30 7 H 73.271800 55.117000 43.187800 0
M  V30 8 H 72.872400 55.374400 41.536200 0
M  V30 9 H 75.625200 54.908700 41.371600 0
M  V30 10 H 75.477200 55.575400 42.950900 0
M  V30 11 H 74.469600 58.057800 43.183600 0
M  V30 12 H 73.030300 57.422200 42.424600 0
M  V30 13 H 73.774500 58.807400 41.727900 0
M  V30 14 H 76.872100 57.450200 42.152100 0
M  V30 15 H 76.872100 56.787200 40.520400 0
M  V30 16 H 76.471800 58.456200 40.784300 0
M  V30 17 H 74.291600 57.656400 39.657400 0
M  V30 18 R 73.486000 53.383800 41.889400 0
M  V30 END ATOM
M  V30 BEGIN BOND
M  V30 1 1 2 1
M  V30 2 1 3 2
M  V30 3 1 4 3
M  V30 4 1 5 3
M  V30 5 1 6 3
M  V30 6 1 7 1
M  V30 7 1 8 1
M  V30 8 1 9 2
M  V30 9 1 10 2
M  V30 10 1 11 4
M  V30 11 1 12 4
M  V30 12 1 13 4
M  V30 13 1 14 5
M  V30 14 1 15 5
M  V30 15 1 16 5
M  V30 16 1 17 6
M  V30 17 1 18 1
M  V30 END BOND
M  V30 END CTAB
M  END
$$$$
R-group 687 (29061-3)
     RDKit          3D

  0  0  0  0  0  0  0  0  0  0999 V3000
M  V30 BEGIN CTAB
M  V30 COUNTS 19 19 0 0 1
M  V30 BEGIN ATOM
M  V30 1 C 74.172100 56.988100 38.924200 0
M  V30 2 O 74.663400 56.269600 40.010800 0
M  V30 3 C 73.753800 56.308300 41.062900 0 CFG=2
M  V30 4 C 73.868400 57.658100 41.769400 0
M  V30 5 C 73.799400 57.366100 43.252500 0
M  V30 6 C 73.604500 55.856400 43.324700 0
M  V30 7 C 74.177000 55.247100 42.064600 0 CFG=1
M  V30 8 H 74.860200 56.857900 38.092000 0
M  V30 9 H 73.207800 56.609300 38.586100 0
M  V30 10 H 74.072000 58.049200 39.140800 0
M  V30 11 H 72.741300 56.142600 40.710600 0
M  V30 12 H 74.852500 58.057900 41.553000 0
M  V30 13 H 73.116900 58.375700 41.438500 0
M  V30 14 H 74.743300 57.660100 43.714000 0
M  V30 15 H 72.990300 57.905200 43.745200 0
M  V30 16 H 72.531900 55.658000 43.324800 0
M  V30 17 H 74.078700 55.422400 44.195700 0
M  V30 18 H 75.267200 55.275500 42.132500 0
M  V30 19 R 73.712300 53.776400 41.816600 0
M  V30 END ATOM
M  V30 BEGIN BOND
M  V30 1 1 2 1
M  V30 2 1 3 2
M  V30 3 1 4 3
M  V30 4 1 5 4
M  V30 5 1 6 5
M  V30 6 1 7 3
M  V30 7 1 7 6
M  V30 8 1 8 1
M  V30 9 1 9 1
M  V30 10 1 10 1
M  V30 11 1 3 11 CFG=3
M  V30 12 1 12 4
M  V30 13 1 13 4
M  V30 14 1 14 5
M  V30 15 1 15 5
M  V30 16 1 16 6
M  V30 17 1 17 6
M  V30 18 1 7 18 CFG=1
M  V30 19 1 19 7
M  V30 END BOND
M  V30 END CTAB
M  END
$$$$
R-group 688 (18906-1)
     RDKit          3D

  0  0  0  0  0  0  0  0  0  0999 V3000
M  V30 BEGIN CTAB
M  V30 COUNTS 18 17 0 0 1
M  V30 BEGIN ATOM
M  V30 1 C 75.880800 56.843500 40.824800 0
M  V30 2 C 75.504200 55.551500 41.553000 0
M  V30 3 C 73.998700 55.311000 41.835300 0 CFG=2
M  V30 4 C 73.526800 56.009400 43.137500 0
M  V30 5 C 73.665400 57.531800 43.162700 0
M  V30 6 O 73.242700 58.057900 41.934700 0
M  V30 7 H 76.871900 56.759100 40.380800 0
M  V30 8 H 75.185200 57.100900 40.026200 0
M  V30 9 H 75.936800 57.660600 41.528800 0
M  V30 10 H 76.068000 55.480700 42.480700 0
M  V30 11 H 75.868200 54.765800 40.913300 0
M  V30 12 H 73.442400 55.763700 41.015300 0
M  V30 13 H 72.478600 55.768500 43.322000 0
M  V30 14 H 74.072600 55.618800 43.992000 0
M  V30 15 H 73.051600 57.954700 43.959200 0
M  V30 16 H 74.695800 57.828700 43.350400 0
M  V30 17 H 73.821100 57.735600 41.259500 0
M  V30 18 R 73.589600 53.801400 41.808900 0
M  V30 END ATOM
M  V30 BEGIN BOND
M  V30 1 1 2 1
M  V30 2 1 3 2
M  V30 3 1 4 3
M  V30 4 1 5 4
M  V30 5 1 6 5
M  V30 6 1 7 1
M  V30 7 1 8 1
M  V30 8 1 9 1
M  V30 9 1 10 2
M  V30 10 1 11 2
M  V30 11 1 3 12 CFG=3
M  V30 12 1 13 4
M  V30 13 1 14 4
M  V30 14 1 15 5
M  V30 15 1 16 5
M  V30 16 1 17 6
M  V30 17 1 18 3
M  V30 END BOND
M  V30 END CTAB
M  END
$$$$
R-group 689 (25465-5)
     RDKit          3D

  0  0  0  0  0  0  0  0  0  0999 V3000
M  V30 BEGIN CTAB
M  V30 COUNTS 15 15 0 0 1
M  V30 BEGIN ATOM
M  V30 1 C 73.855000 55.194900 41.993500 0 CFG=1
M  V30 2 O 74.473200 55.620600 43.201200 0
M  V30 3 C 75.486900 56.579500 42.956700 0
M  V30 4 C 75.249300 57.043000 41.529800 0 CFG=1
M  V30 5 O 76.472300 57.356900 40.924400 0
M  V30 6 C 74.710000 55.797200 40.877900 0 CFG=2
M  V30 7 O 73.932300 56.138100 39.744200 0
M  V30 8 H 72.888400 55.693500 41.987500 0
M  V30 9 H 75.481900 57.399000 43.677500 0
M  V30 10 H 76.440400 56.059800 43.046400 0
M  V30 11 H 74.528700 57.864700 41.502400 0
M  V30 12 H 75.545900 55.142000 40.635500 0
M  V30 13 H 76.834500 58.121800 41.345400 0
M  V30 14 H 73.624600 55.339800 39.345200 0
M  V30 15 R 73.603000 53.663900 41.958200 0
M  V30 END ATOM
M  V30 BEGIN BOND
M  V30 1 1 2 1
M  V30 2 1 3 2
M  V30 3 1 4 3
M  V30 4 1 5 4
M  V30 5 1 6 1
M  V30 6 1 6 4
M  V30 7 1 7 6
M  V30 8 1 1 8 CFG=1
M  V30 9 1 9 3
M  V30 10 1 10 3
M  V30 11 1 4 11 CFG=1
M  V30 12 1 6 12 CFG=3
M  V30 13 1 13 5
M  V30 14 1 14 7
M  V30 15 1 15 1
M  V30 END BOND
M  V30 END CTAB
M  END
$$$$
R-group 690 (1934-1)
     RDKit          3D

  0  0  0  0  0  0  0  0  0  0999 V3000
M  V30 BEGIN CTAB
M  V30 COUNTS 7 7 0 0 1
M  V30 BEGIN ATOM
M  V30 1 C 74.111500 54.924800 41.833900 0
M  V30 2 N 74.848900 55.501900 42.788700 0
M  V30 3 N 74.944900 56.857800 42.605500 0
M  V30 4 C 74.187100 57.254800 41.592700 0
M  V30 5 S 73.672300 56.006800 40.512500 0
M  V30 6 H 74.072000 58.304900 41.393300 0
M  V30 7 R 73.707700 53.485100 41.886200 0
M  V30 END ATOM
M  V30 BEGIN BOND
M  V30 1 2 2 1
M  V30 2 1 3 2
M  V30 3 2 4 3
M  V30 4 1 5 1
M  V30 5 1 5 4
M  V30 6 1 6 4
M  V30 7 1 7 1
M  V30 END BOND
M  V30 END CTAB
M  END
$$$$
R-group 691 (10130-2)
     RDKit          3D

  0  0  0  0  0  0  0  0  0  0999 V3000
M  V30 BEGIN CTAB
M  V30 COUNTS 11 10 0 0 1
M  V30 BEGIN ATOM
M  V30 1 C 73.464000 55.230800 41.793800 0 CFG=2
M  V30 2 C 72.873800 55.938500 40.524300 0
M  V30 3 C 74.790900 55.932600 42.135200 0
M  V30 4 F 75.272300 55.548200 43.313600 0
M  V30 5 F 75.672400 55.665500 41.180500 0
M  V30 6 F 74.590900 57.257400 42.198300 0
M  V30 7 H 72.846800 55.481100 42.652200 0
M  V30 8 H 73.586900 55.900500 39.700800 0
M  V30 9 H 71.938700 55.540400 40.124800 0
M  V30 10 H 72.692800 56.996500 40.716300 0
M  V30 11 R 73.448000 53.649100 41.730700 0
M  V30 END ATOM
M  V30 BEGIN BOND
M  V30 1 1 2 1
M  V30 2 1 3 1
M  V30 3 1 4 3
M  V30 4 1 5 3
M  V30 5 1 6 3
M  V30 6 1 1 7 CFG=1
M  V30 7 1 8 2
M  V30 8 1 9 2
M  V30 9 1 10 2
M  V30 10 1 11 1
M  V30 END BOND
M  V30 END CTAB
M  END
$$$$
R-group 692 (40137-1)
     RDKit          3D

  0  0  0  0  0  0  0  0  0  0999 V3000
M  V30 BEGIN CTAB
M  V30 COUNTS 10 10 0 0 1
M  V30 BEGIN ATOM
M  V30 1 C 73.901900 54.944100 41.754900 0
M  V30 2 C 74.403900 55.619100 42.795900 0
M  V30 3 N 74.474500 56.940700 42.504900 0
M  V30 4 N 74.069400 57.091600 41.212100 0
M  V30 5 C 73.716000 55.921100 40.675600 0
M  V30 6 O 73.327800 55.775700 39.518200 0
M  V30 7 H 74.687400 55.291200 43.783900 0
M  V30 8 H 75.234500 57.507900 42.858700 0
M  V30 9 H 74.058700 58.007800 40.791100 0
M  V30 10 R 73.579700 53.446400 41.706700 0
M  V30 END ATOM
M  V30 BEGIN BOND
M  V30 1 2 2 1
M  V30 2 1 3 2
M  V30 3 1 4 3
M  V30 4 1 5 1
M  V30 5 1 5 4
M  V30 6 2 6 5
M  V30 7 1 7 2
M  V30 8 1 8 3
M  V30 9 1 9 4
M  V30 10 1 10 1
M  V30 END BOND
M  V30 END CTAB
M  END
$$$$
R-group 693 (19167-2)
     RDKit          3D

  0  0  0  0  0  0  0  0  0  0999 V3000
M  V30 BEGIN CTAB
M  V30 COUNTS 13 13 0 0 1
M  V30 BEGIN ATOM
M  V30 1 C 74.679100 55.146700 41.952200 0 CFG=2
M  V30 2 C 74.771000 55.884100 43.308000 0
M  V30 3 C 73.879400 57.127100 43.172600 0
M  V30 4 N 73.672200 57.261300 41.751500 0
M  V30 5 C 74.072400 56.214300 41.045800 0
M  V30 6 O 74.010600 56.134400 39.821200 0
M  V30 7 H 75.685500 54.970300 41.576200 0
M  V30 8 H 74.471400 55.269200 44.153700 0
M  V30 9 H 75.803500 56.187200 43.488400 0
M  V30 10 H 74.348700 58.025000 43.576200 0
M  V30 11 H 72.918000 56.980800 43.668000 0
M  V30 12 H 73.271000 58.088500 41.334700 0
M  V30 13 R 73.916800 53.781700 42.014400 0
M  V30 END ATOM
M  V30 BEGIN BOND
M  V30 1 1 2 1
M  V30 2 1 3 2
M  V30 3 1 4 3
M  V30 4 1 5 1
M  V30 5 1 5 4
M  V30 6 2 6 5
M  V30 7 1 1 7 CFG=3
M  V30 8 1 8 2
M  V30 9 1 9 2
M  V30 10 1 10 3
M  V30 11 1 11 3
M  V30 12 1 12 4
M  V30 13 1 13 1
M  V30 END BOND
M  V30 END CTAB
M  END
$$$$
R-group 694 (39716-4)
     RDKit          3D

  0  0  0  0  0  0  0  0  0  0999 V3000
M  V30 BEGIN CTAB
M  V30 COUNTS 18 18 0 0 1
M  V30 BEGIN ATOM
M  V30 1 O 73.383500 54.510900 42.125400 0
M  V30 2 C 74.519200 55.261900 41.740200 0 CFG=1
M  V30 3 C 74.299400 55.831100 40.343100 0
M  V30 4 N 73.650200 57.081900 40.538400 0
M  V30 5 C 73.672300 57.860200 39.325200 0
M  V30 6 C 74.367200 57.657800 41.653700 0
M  V30 7 C 74.538200 56.502800 42.635400 0 CFG=2
M  V30 8 F 75.671200 56.582400 43.322700 0
M  V30 9 H 75.464100 54.724800 41.806200 0
M  V30 10 H 75.271000 55.987500 39.868500 0
M  V30 11 H 73.699700 55.214900 39.679900 0
M  V30 12 H 73.045800 57.353800 38.585000 0
M  V30 13 H 73.272100 58.851300 39.508100 0
M  V30 14 H 74.680300 57.967600 38.924500 0
M  V30 15 H 73.829700 58.497600 42.090000 0
M  V30 16 H 75.353000 57.990700 41.324600 0
M  V30 17 H 73.712900 56.474700 43.349300 0
M  V30 18 R 73.411200 53.116200 41.912100 0
M  V30 END ATOM
M  V30 BEGIN BOND
M  V30 1 1 2 1
M  V30 2 1 3 2
M  V30 3 1 4 3
M  V30 4 1 5 4
M  V30 5 1 6 4
M  V30 6 1 7 2
M  V30 7 1 7 6
M  V30 8 1 8 7
M  V30 9 1 2 9 CFG=3
M  V30 10 1 10 3
M  V30 11 1 11 3
M  V30 12 1 12 5
M  V30 13 1 13 5
M  V30 14 1 14 5
M  V30 15 1 15 6
M  V30 16 1 16 6
M  V30 17 1 7 17 CFG=1
M  V30 18 1 18 1
M  V30 END BOND
M  V30 END CTAB
M  END
$$$$
R-group 695 (29782-1)
     RDKit          3D

  0  0  0  0  0  0  0  0  0  0999 V3000
M  V30 BEGIN CTAB
M  V30 COUNTS 10 10 0 0 1
M  V30 BEGIN ATOM
M  V30 1 C 74.105600 54.964900 41.973200 0
M  V30 2 C 73.672300 56.136900 42.534100 0
M  V30 3 O 74.513400 57.152000 42.177100 0
M  V30 4 C 75.440300 56.514200 41.421100 0
M  V30 5 N 76.472300 57.258500 40.925600 0
M  V30 6 N 75.249900 55.233300 41.252300 0
M  V30 7 H 72.857700 56.386500 43.195500 0
M  V30 8 H 77.134800 56.867800 40.271300 0
M  V30 9 H 76.545100 58.246400 41.121200 0
M  V30 10 R 73.602200 53.562100 42.080700 0
M  V30 END ATOM
M  V30 BEGIN BOND
M  V30 1 2 2 1
M  V30 2 1 3 2
M  V30 3 1 4 3
M  V30 4 1 5 4
M  V30 5 1 6 1
M  V30 6 2 6 4
M  V30 7 1 7 2
M  V30 8 1 8 5
M  V30 9 1 9 5
M  V30 10 1 10 1
M  V30 END BOND
M  V30 END CTAB
M  END
$$$$
R-group 696 (4798-1)
     RDKit          3D

  0  0  0  0  0  0  0  0  0  0999 V3000
M  V30 BEGIN CTAB
M  V30 COUNTS 21 21 0 0 1
M  V30 BEGIN ATOM
M  V30 1 C 73.509300 54.731400 42.165700 0
M  V30 2 C 74.906600 55.299700 42.479900 0
M  V30 3 C 75.061000 56.770000 42.117000 0
M  V30 4 C 74.973300 57.012700 40.599500 0
M  V30 5 C 73.603500 57.653100 40.328100 0
M  V30 6 C 73.128500 58.220300 41.672800 0
M  V30 7 C 73.996500 57.643800 42.782200 0
M  V30 8 H 73.116500 55.197700 41.267900 0
M  V30 9 H 72.791400 55.023000 42.924800 0
M  V30 10 H 75.124200 55.165700 43.539400 0
M  V30 11 H 75.668600 54.749400 41.934800 0
M  V30 12 H 76.046100 57.082100 42.458200 0
M  V30 13 H 75.791600 57.656700 40.289400 0
M  V30 14 H 75.101000 56.101200 40.018600 0
M  V30 15 H 73.658100 58.401700 39.536400 0
M  V30 16 H 72.894500 56.899200 39.982700 0
M  V30 17 H 73.246500 59.284800 41.724800 0
M  V30 18 H 72.072200 58.058200 41.843200 0
M  V30 19 H 73.400700 57.102600 43.515500 0
M  V30 20 H 74.470400 58.455900 43.325100 0
M  V30 21 R 73.443100 53.215000 41.961900 0
M  V30 END ATOM
M  V30 BEGIN BOND
M  V30 1 1 2 1
M  V30 2 1 3 2
M  V30 3 1 4 3
M  V30 4 1 5 4
M  V30 5 1 6 5
M  V30 6 1 7 3
M  V30 7 1 7 6
M  V30 8 1 8 1
M  V30 9 1 9 1
M  V30 10 1 10 2
M  V30 11 1 11 2
M  V30 12 1 12 3
M  V30 13 1 13 4
M  V30 14 1 14 4
M  V30 15 1 15 5
M  V30 16 1 16 5
M  V30 17 1 17 6
M  V30 18 1 18 6
M  V30 19 1 19 7
M  V30 20 1 20 7
M  V30 21 1 21 1
M  V30 END BOND
M  V30 END CTAB
M  END
$$$$
R-group 697 (16172-2)
     RDKit          3D

  0  0  0  0  0  0  0  0  0  0999 V3000
M  V30 BEGIN CTAB
M  V30 COUNTS 16 16 0 0 1
M  V30 BEGIN ATOM
M  V30 1 O 73.673100 54.980400 41.777200 0
M  V30 2 C 73.284100 55.568700 42.995800 0
M  V30 3 C 73.260300 57.057800 43.037700 0 CFG=1
M  V30 4 C 74.591800 57.656500 42.767900 0
M  V30 5 C 73.399600 58.059800 41.918700 0 CFG=1
M  V30 6 C 73.273000 57.637800 40.465800 0
M  V30 7 H 72.288700 55.257800 43.321800 0
M  V30 8 H 74.037200 55.256100 43.727100 0
M  V30 9 H 72.754400 57.435800 43.924500 0
M  V30 10 H 74.895100 58.057900 43.722900 0
M  V30 11 H 75.349200 57.040400 42.284400 0
M  V30 12 H 72.948900 59.028800 42.124200 0
M  V30 13 H 74.103300 56.995300 40.169600 0
M  V30 14 H 72.342700 57.097600 40.305100 0
M  V30 15 H 73.272400 58.509800 39.816300 0
M  V30 16 R 73.459900 53.576200 41.768500 0
M  V30 END ATOM
M  V30 BEGIN BOND
M  V30 1 1 2 1
M  V30 2 1 3 2
M  V30 3 1 4 3
M  V30 4 1 5 3
M  V30 5 1 5 4
M  V30 6 1 6 5
M  V30 7 1 7 2
M  V30 8 1 8 2
M  V30 9 1 3 9 CFG=1
M  V30 10 1 10 4
M  V30 11 1 11 4
M  V30 12 1 5 12 CFG=1
M  V30 13 1 13 6
M  V30 14 1 14 6
M  V30 15 1 15 6
M  V30 16 1 16 1
M  V30 END BOND
M  V30 END CTAB
M  END
$$$$
R-group 698 (1140-1)
     RDKit          3D

  0  0  0  0  0  0  0  0  0  0999 V3000
M  V30 BEGIN CTAB
M  V30 COUNTS 15 14 0 0 1
M  V30 BEGIN ATOM
M  V30 1 C 76.743900 57.392500 40.933000 0
M  V30 2 O 75.430700 56.891800 41.068900 0
M  V30 3 C 75.379200 55.587100 41.592300 0
M  V30 4 C 73.896800 55.278900 41.832900 0 CFG=2
M  V30 5 C 73.422700 55.986100 43.104600 0
M  V30 6 H 76.712100 58.453500 40.679000 0
M  V30 7 H 77.298800 57.282100 41.860600 0
M  V30 8 H 77.272100 56.872500 40.140200 0
M  V30 9 H 75.943500 55.517000 42.524400 0
M  V30 10 H 75.844700 54.913200 40.883400 0
M  V30 11 H 73.342700 55.754200 41.018300 0
M  V30 12 H 74.006200 55.655500 43.968800 0
M  V30 13 H 73.549300 57.067100 43.016700 0
M  V30 14 H 72.370800 55.785600 43.284300 0
M  V30 15 R 73.536500 53.767800 41.804700 0
M  V30 END ATOM
M  V30 BEGIN BOND
M  V30 1 1 2 1
M  V30 2 1 3 2
M  V30 3 1 4 3
M  V30 4 1 5 4
M  V30 5 1 6 1
M  V30 6 1 7 1
M  V30 7 1 8 1
M  V30 8 1 9 3
M  V30 9 1 10 3
M  V30 10 1 4 11 CFG=3
M  V30 11 1 12 5
M  V30 12 1 13 5
M  V30 13 1 14 5
M  V30 14 1 15 4
M  V30 END BOND
M  V30 END CTAB
M  END
$$$$
R-group 699 (3561-1)
     RDKit          3D

  0  0  0  0  0  0  0  0  0  0999 V3000
M  V30 BEGIN CTAB
M  V30 COUNTS 12 12 0 0 1
M  V30 BEGIN ATOM
M  V30 1 N 73.676300 55.020200 41.783200 0
M  V30 2 C 74.933200 55.504700 41.241000 0
M  V30 3 C 74.857200 56.606900 42.283200 0
M  V30 4 O 76.071600 56.858100 42.922100 0
M  V30 5 C 73.883400 55.716800 43.045200 0
M  V30 6 H 75.782200 54.845900 41.403300 0
M  V30 7 H 74.857600 55.854900 40.209100 0
M  V30 8 H 74.405400 57.530800 41.908400 0
M  V30 9 H 72.986500 56.213100 43.414600 0
M  V30 10 H 74.394600 55.163600 43.825100 0
M  V30 11 H 75.945900 57.579400 43.525200 0
M  V30 12 R 73.504600 53.559100 41.816200 0
M  V30 END ATOM
M  V30 BEGIN BOND
M  V30 1 1 2 1
M  V30 2 1 3 2
M  V30 3 1 4 3
M  V30 4 1 5 1
M  V30 5 1 5 3
M  V30 6 1 6 2
M  V30 7 1 7 2
M  V30 8 1 8 3
M  V30 9 1 9 5
M  V30 10 1 10 5
M  V30 11 1 11 4
M  V30 12 1 12 1
M  V30 END BOND
M  V30 END CTAB
M  END
$$$$
R-group 700 (10909-2)
     RDKit          3D

  0  0  0  0  0  0  0  0  0  0999 V3000
M  V30 BEGIN CTAB
M  V30 COUNTS 19 19 0 0 1
M  V30 BEGIN ATOM
M  V30 1 C 73.770900 54.760400 41.671300 0 CFG=1
M  V30 2 C 73.388800 55.577000 42.924700 0
M  V30 3 C 73.423300 57.106200 42.829300 0
M  V30 4 C 73.822700 57.626100 41.468700 0
M  V30 5 O 75.191600 57.258000 41.324300 0
M  V30 6 C 75.455500 56.218900 40.436400 0
M  V30 7 C 75.250300 54.986100 41.274100 0
M  V30 8 H 73.127300 55.091900 40.857000 0
M  V30 9 H 72.380200 55.305400 43.238100 0
M  V30 10 H 74.068600 55.294200 43.729100 0
M  V30 11 H 72.472300 57.531100 43.123100 0
M  V30 12 H 74.131300 57.510900 43.549200 0
M  V30 13 H 73.173900 57.273200 40.665300 0
M  V30 14 H 73.672200 58.702400 41.502900 0
M  V30 15 H 74.838200 56.244300 39.537400 0
M  V30 16 H 76.497700 56.294400 40.127000 0
M  V30 17 H 75.859400 55.062100 42.170300 0
M  V30 18 H 75.672300 54.170500 40.709400 0
M  V30 19 R 73.450300 53.266900 41.874200 0
M  V30 END ATOM
M  V30 BEGIN BOND
M  V30 1 1 2 1
M  V30 2 1 3 2
M  V30 3 1 4 3
M  V30 4 1 5 4
M  V30 5 1 6 5
M  V30 6 1 7 1
M  V30 7 1 7 6
M  V30 8 1 1 8 CFG=3
M  V30 9 1 9 2
M  V30 10 1 10 2
M  V30 11 1 11 3
M  V30 12 1 12 3
M  V30 13 1 13 4
M  V30 14 1 14 4
M  V30 15 1 15 6
M  V30 16 1 16 6
M  V30 17 1 17 7
M  V30 18 1 18 7
M  V30 19 1 19 1
M  V30 END BOND
M  V30 END CTAB
M  END
$$$$
R-group 701 (44543-1)
     RDKit          3D

  0  0  0  0  0  0  0  0  0  0999 V3000
M  V30 BEGIN CTAB
M  V30 COUNTS 8 8 0 0 1
M  V30 BEGIN ATOM
M  V30 1 C 74.134900 55.056300 41.976600 0
M  V30 2 C 73.672300 56.161100 42.525000 0
M  V30 3 O 74.497300 57.177800 42.205900 0
M  V30 4 C 75.512500 56.655700 41.452200 0
M  V30 5 O 76.472100 57.258000 40.984500 0
M  V30 6 O 75.272200 55.339400 41.315700 0
M  V30 7 H 72.816500 56.376000 43.146800 0
M  V30 8 R 73.647600 53.625300 41.976100 0
M  V30 END ATOM
M  V30 BEGIN BOND
M  V30 1 2 2 1
M  V30 2 1 3 2
M  V30 3 1 4 3
M  V30 4 2 5 4
M  V30 5 1 6 1
M  V30 6 1 6 4
M  V30 7 1 7 2
M  V30 8 1 8 1
M  V30 END BOND
M  V30 END CTAB
M  END
$$$$
R-group 702 (19159-1)
     RDKit          3D

  0  0  0  0  0  0  0  0  0  0999 V3000
M  V30 BEGIN CTAB
M  V30 COUNTS 18 17 0 0 1
M  V30 BEGIN ATOM
M  V30 1 C 73.657700 54.896200 41.531800 0
M  V30 2 C 72.972300 55.587200 40.311600 0
M  V30 3 C 73.099400 55.555900 42.818600 0
M  V30 4 C 75.192200 55.124500 41.389100 0
M  V30 5 C 75.672200 56.518900 41.651400 0
M  V30 6 N 75.705300 56.858000 42.924200 0
M  V30 7 O 76.072300 57.253700 40.767100 0
M  V30 8 H 71.932200 55.310100 40.150800 0
M  V30 9 H 73.005300 56.670600 40.406400 0
M  V30 10 H 73.489500 55.359600 39.376400 0
M  V30 11 H 72.075400 55.248300 43.040500 0
M  V30 12 H 73.717200 55.311600 43.678800 0
M  V30 13 H 73.066600 56.641400 42.749300 0
M  V30 14 H 75.588300 54.826500 40.425400 0
M  V30 15 H 75.743300 54.559700 42.123900 0
M  V30 16 H 75.358700 56.212700 43.619300 0
M  V30 17 H 76.081400 57.754100 43.196600 0
M  V30 18 R 73.383900 53.348200 41.632100 0
M  V30 END ATOM
M  V30 BEGIN BOND
M  V30 1 1 2 1
M  V30 2 1 3 1
M  V30 3 1 4 1
M  V30 4 1 5 4
M  V30 5 1 6 5
M  V30 6 2 7 5
M  V30 7 1 8 2
M  V30 8 1 9 2
M  V30 9 1 10 2
M  V30 10 1 11 3
M  V30 11 1 12 3
M  V30 12 1 13 3
M  V30 13 1 14 4
M  V30 14 1 15 4
M  V30 15 1 16 6
M  V30 16 1 17 6
M  V30 17 1 18 1
M  V30 END BOND
M  V30 END CTAB
M  END
$$$$
R-group 703 (31005-1)
     RDKit          3D

  0  0  0  0  0  0  0  0  0  0999 V3000
M  V30 BEGIN CTAB
M  V30 COUNTS 21 21 0 0 1
M  V30 BEGIN ATOM
M  V30 1 C 73.757100 54.978200 41.543000 0 CFG=2
M  V30 2 C 74.859200 55.404300 40.544900 0
M  V30 3 C 75.479600 56.645300 41.148100 0
M  V30 4 C 75.439500 56.246700 42.606700 0 CFG=1
M  V30 5 C 75.947700 57.258000 43.578000 0
M  V30 6 C 74.040700 55.722700 42.862000 0 CFG=1
M  V30 7 C 72.969600 56.749600 43.241500 0
M  V30 8 H 72.872100 55.409800 41.106300 0
M  V30 9 H 75.642900 54.650000 40.482100 0
M  V30 10 H 74.473600 55.590100 39.541800 0
M  V30 11 H 76.487200 56.835600 40.777100 0
M  V30 12 H 74.861000 57.524700 40.967500 0
M  V30 13 H 76.072000 55.376700 42.717300 0
M  V30 14 H 75.240600 58.056800 43.724500 0
M  V30 15 H 76.096900 56.765100 44.524600 0
M  V30 16 H 76.872300 57.686600 43.225100 0
M  V30 17 H 74.076600 55.076200 43.724900 0
M  V30 18 H 72.756400 57.446000 42.429900 0
M  V30 19 H 72.075000 56.193500 43.518200 0
M  V30 20 H 73.238100 57.327500 44.124300 0
M  V30 21 R 73.516700 53.455400 41.712500 0
M  V30 END ATOM
M  V30 BEGIN BOND
M  V30 1 1 2 1
M  V30 2 1 3 2
M  V30 3 1 4 3
M  V30 4 1 5 4
M  V30 5 1 6 1
M  V30 6 1 6 4
M  V30 7 1 7 6
M  V30 8 1 1 8 CFG=3
M  V30 9 1 9 2
M  V30 10 1 10 2
M  V30 11 1 11 3
M  V30 12 1 12 3
M  V30 13 1 4 13 CFG=3
M  V30 14 1 14 5
M  V30 15 1 15 5
M  V30 16 1 16 5
M  V30 17 1 6 17 CFG=1
M  V30 18 1 18 7
M  V30 19 1 19 7
M  V30 20 1 20 7
M  V30 21 1 21 1
M  V30 END BOND
M  V30 END CTAB
M  END
$$$$
R-group 704 (4966-1)
     RDKit          3D

  0  0  0  0  0  0  0  0  0  0999 V3000
M  V30 BEGIN CTAB
M  V30 COUNTS 18 18 0 0 1
M  V30 BEGIN ATOM
M  V30 1 C 73.632300 54.949400 42.332000 0
M  V30 2 C 74.966000 55.682500 42.088700 0
M  V30 3 C 74.750500 56.993100 41.340000 0
M  V30 4 C 74.192100 56.906900 39.908800 0
M  V30 5 C 73.103600 57.911400 40.261500 0
M  V30 6 C 73.553300 57.888000 41.720200 0
M  V30 7 H 72.872500 55.348200 41.673800 0
M  V30 8 H 73.288400 55.220500 43.324700 0
M  V30 9 H 75.448000 55.872200 43.048500 0
M  V30 10 H 75.671400 55.062300 41.540400 0
M  V30 11 H 75.660800 57.595000 41.323900 0
M  V30 12 H 74.872200 57.270100 39.142200 0
M  V30 13 H 73.790600 55.931400 39.637200 0
M  V30 14 H 73.272300 58.857600 39.750300 0
M  V30 15 H 72.090600 57.534300 40.124700 0
M  V30 16 H 72.827400 57.423400 42.382400 0
M  V30 17 H 73.805300 58.858000 42.124100 0
M  V30 18 R 73.576700 53.434100 42.098600 0
M  V30 END ATOM
M  V30 BEGIN BOND
M  V30 1 1 2 1
M  V30 2 1 3 2
M  V30 3 1 4 3
M  V30 4 1 5 4
M  V30 5 1 6 3
M  V30 6 1 6 5
M  V30 7 1 7 1
M  V30 8 1 8 1
M  V30 9 1 9 2
M  V30 10 1 10 2
M  V30 11 1 11 3
M  V30 12 1 12 4
M  V30 13 1 13 4
M  V30 14 1 14 5
M  V30 15 1 15 5
M  V30 16 1 16 6
M  V30 17 1 17 6
M  V30 18 1 18 1
M  V30 END BOND
M  V30 END CTAB
M  END
$$$$
R-group 705 (10758-1)
     RDKit          3D

  0  0  0  0  0  0  0  0  0  0999 V3000
M  V30 BEGIN CTAB
M  V30 COUNTS 18 17 0 0 1
M  V30 BEGIN ATOM
M  V30 1 C 73.762400 54.927000 42.534500 0
M  V30 2 C 75.105500 55.584400 42.198000 0
M  V30 3 C 74.936700 56.950000 41.521900 0
M  V30 4 C 74.072200 57.880100 42.410800 0
M  V30 5 C 76.366600 57.480700 41.239500 0
M  V30 6 C 74.200100 56.689200 40.282700 0
M  V30 7 N 73.606000 56.458000 39.324700 0
M  V30 8 H 73.672200 55.150200 43.589700 0
M  V30 9 H 72.918000 55.423800 42.067500 0
M  V30 10 H 75.694500 54.936100 41.557800 0
M  V30 11 H 75.693500 55.686000 43.111800 0
M  V30 12 H 74.573300 58.058000 43.359300 0
M  V30 13 H 73.844700 58.826900 41.927000 0
M  V30 14 H 73.096000 57.465600 42.653300 0
M  V30 15 H 76.940900 57.534600 42.161700 0
M  V30 16 H 76.872200 56.785200 40.572400 0
M  V30 17 H 76.472200 58.458000 40.771200 0
M  V30 18 R 73.600800 53.431000 42.210700 0
M  V30 END ATOM
M  V30 BEGIN BOND
M  V30 1 1 2 1
M  V30 2 1 3 2
M  V30 3 1 4 3
M  V30 4 1 5 3
M  V30 5 1 6 3
M  V30 6 3 7 6
M  V30 7 1 8 1
M  V30 8 1 9 1
M  V30 9 1 10 2
M  V30 10 1 11 2
M  V30 11 1 12 4
M  V30 12 1 13 4
M  V30 13 1 14 4
M  V30 14 1 15 5
M  V30 15 1 16 5
M  V30 16 1 17 5
M  V30 17 1 18 1
M  V30 END BOND
M  V30 END CTAB
M  END
$$$$
R-group 706 (10992-1)
     RDKit          3D

  0  0  0  0  0  0  0  0  0  0999 V3000
M  V30 BEGIN CTAB
M  V30 COUNTS 14 14 0 0 1
M  V30 BEGIN ATOM
M  V30 1 C 73.240300 54.585600 42.667500 0
M  V30 2 C 73.929800 55.569700 41.836900 0
M  V30 3 C 73.671900 55.998500 40.565700 0
M  V30 4 N 74.721300 56.717100 40.044600 0
M  V30 5 C 75.709000 56.872600 40.924700 0
M  V30 6 C 76.861400 57.756700 40.668400 0
M  V30 7 S 75.349800 56.281900 42.504000 0
M  V30 8 H 72.212800 54.861900 42.916500 0
M  V30 9 H 73.780800 54.689000 43.595500 0
M  V30 10 H 72.834200 55.754400 39.929300 0
M  V30 11 H 76.486900 58.602000 40.101300 0
M  V30 12 H 77.268000 58.058000 41.627700 0
M  V30 13 H 77.671500 57.305500 40.122500 0
M  V30 14 R 73.363000 53.128900 42.182100 0
M  V30 END ATOM
M  V30 BEGIN BOND
M  V30 1 1 2 1
M  V30 2 2 3 2
M  V30 3 1 4 3
M  V30 4 2 5 4
M  V30 5 1 6 5
M  V30 6 1 7 2
M  V30 7 1 7 5
M  V30 8 1 8 1
M  V30 9 1 9 1
M  V30 10 1 10 3
M  V30 11 1 11 6
M  V30 12 1 12 6
M  V30 13 1 13 6
M  V30 14 1 14 1
M  V30 END BOND
M  V30 END CTAB
M  END
$$$$
R-group 707 (19391-2)
     RDKit          3D

  0  0  0  0  0  0  0  0  0  0999 V3000
M  V30 BEGIN CTAB
M  V30 COUNTS 19 19 0 0 1
M  V30 BEGIN ATOM
M  V30 1 C 71.811200 59.300300 42.126400 0
M  V30 2 O 72.872200 58.458000 41.720100 0
M  V30 3 C 73.604500 57.811300 42.737900 0
M  V30 4 C 74.490300 56.864400 41.962400 0 CFG=1
M  V30 5 C 74.990000 55.591800 42.644700 0
M  V30 6 C 73.701700 54.914100 42.146500 0 CFG=1
M  V30 7 C 73.781800 55.926100 40.988200 0
M  V30 8 H 71.148900 59.463100 41.282800 0
M  V30 9 H 71.233500 58.858000 42.924400 0
M  V30 10 H 72.105800 60.284800 42.472700 0
M  V30 11 H 72.933200 57.294800 43.424400 0
M  V30 12 H 74.235700 58.458000 43.330400 0
M  V30 13 H 75.303000 57.391100 41.459500 0
M  V30 14 H 75.094400 55.657700 43.726600 0
M  V30 15 H 75.894900 55.213400 42.168400 0
M  V30 16 H 72.881400 55.199500 42.809400 0
M  V30 17 H 74.437600 55.665100 40.162000 0
M  V30 18 H 72.826500 56.274300 40.603800 0
M  V30 19 R 73.592500 53.411500 41.902900 0
M  V30 END ATOM
M  V30 BEGIN BOND
M  V30 1 1 2 1
M  V30 2 1 3 2
M  V30 3 1 4 3
M  V30 4 1 5 4
M  V30 5 1 6 5
M  V30 6 1 7 4
M  V30 7 1 7 6
M  V30 8 1 8 1
M  V30 9 1 9 1
M  V30 10 1 10 1
M  V30 11 1 11 3
M  V30 12 1 12 3
M  V30 13 1 4 13 CFG=3
M  V30 14 1 14 5
M  V30 15 1 15 5
M  V30 16 1 6 16 CFG=1
M  V30 17 1 17 7
M  V30 18 1 18 7
M  V30 19 1 19 6
M  V30 END BOND
M  V30 END CTAB
M  END
$$$$
R-group 708 (35688-4)
     RDKit          3D

  0  0  0  0  0  0  0  0  0  0999 V3000
M  V30 BEGIN CTAB
M  V30 COUNTS 16 16 0 0 1
M  V30 BEGIN ATOM
M  V30 1 C 74.082300 55.223400 41.840900 0 CFG=2
M  V30 2 C 73.599200 55.881100 43.155400 0
M  V30 3 C 73.802800 57.403200 43.209000 0
M  V30 4 O 73.271700 58.027200 42.058000 0
M  V30 5 C 73.868100 57.547300 40.869600 0
M  V30 6 C 73.538900 56.078100 40.663200 0 CFG=1
M  V30 7 F 74.072100 55.770900 39.485600 0
M  V30 8 H 75.170000 55.306400 41.803100 0
M  V30 9 H 72.540300 55.664800 43.306600 0
M  V30 10 H 74.115200 55.444900 44.005900 0
M  V30 11 H 74.858800 57.655000 43.321800 0
M  V30 12 H 73.271700 57.813600 44.067100 0
M  V30 13 H 74.952800 57.657900 40.920800 0
M  V30 14 H 73.493800 58.117200 40.019400 0
M  V30 15 H 72.472200 55.952200 40.524000 0
M  V30 16 R 73.709700 53.700200 41.818800 0
M  V30 END ATOM
M  V30 BEGIN BOND
M  V30 1 1 2 1
M  V30 2 1 3 2
M  V30 3 1 4 3
M  V30 4 1 5 4
M  V30 5 1 6 1
M  V30 6 1 6 5
M  V30 7 1 7 6
M  V30 8 1 1 8 CFG=1
M  V30 9 1 9 2
M  V30 10 1 10 2
M  V30 11 1 11 3
M  V30 12 1 12 3
M  V30 13 1 13 5
M  V30 14 1 14 5
M  V30 15 1 6 15 CFG=3
M  V30 16 1 16 1
M  V30 END BOND
M  V30 END CTAB
M  END
$$$$
R-group 709 (43394-1)
     RDKit          3D

  0  0  0  0  0  0  0  0  0  0999 V3000
M  V30 BEGIN CTAB
M  V30 COUNTS 15 14 0 0 1
M  V30 BEGIN ATOM
M  V30 1 C 76.699200 57.418800 40.873000 0
M  V30 2 O 75.409000 56.859200 41.019600 0
M  V30 3 C 75.396400 55.567100 41.578700 0
M  V30 4 C 73.918600 55.196900 41.819600 0 CFG=2
M  V30 5 C 73.416500 55.911300 43.081800 0
M  V30 6 F 73.458400 57.236000 42.924700 0
M  V30 7 H 76.619400 58.456200 40.542800 0
M  V30 8 H 77.256000 57.406300 41.810700 0
M  V30 9 H 77.257800 56.859600 40.126200 0
M  V30 10 H 75.953100 55.556500 42.515600 0
M  V30 11 H 75.898300 54.892000 40.893100 0
M  V30 12 H 73.344600 55.630600 41.000600 0
M  V30 13 H 72.382600 55.658900 43.322600 0
M  V30 14 H 74.036700 55.658000 43.939100 0
M  V30 15 R 73.601700 53.666400 41.806800 0
M  V30 END ATOM
M  V30 BEGIN BOND
M  V30 1 1 2 1
M  V30 2 1 3 2
M  V30 3 1 4 3
M  V30 4 1 5 4
M  V30 5 1 6 5
M  V30 6 1 7 1
M  V30 7 1 8 1
M  V30 8 1 9 1
M  V30 9 1 10 3
M  V30 10 1 11 3
M  V30 11 1 4 12 CFG=3
M  V30 12 1 13 5
M  V30 13 1 14 5
M  V30 14 1 15 4
M  V30 END BOND
M  V30 END CTAB
M  END
$$$$
R-group 710 (29574-1)
     RDKit          3D

  0  0  0  0  0  0  0  0  0  0999 V3000
M  V30 BEGIN CTAB
M  V30 COUNTS 19 19 0 0 1
M  V30 BEGIN ATOM
M  V30 1 C 76.611100 57.381000 41.520900 0
M  V30 2 C 75.771100 57.095100 42.782600 0
M  V30 3 C 74.269500 57.381200 42.594400 0
M  V30 4 N 73.786300 56.746300 41.388800 0
M  V30 5 C 73.275100 57.271700 40.288300 0
M  V30 6 N 72.909400 56.454700 39.333300 0
M  V30 7 N 73.190200 55.237700 39.844600 0
M  V30 8 C 73.672400 55.459500 41.068800 0
M  V30 9 N 73.850200 54.521700 42.057200 0
M  V30 10 H 77.671400 57.258000 41.724700 0
M  V30 11 H 76.361700 56.704000 40.704100 0
M  V30 12 H 76.472800 58.400100 41.163000 0
M  V30 13 H 76.131800 57.657800 43.639300 0
M  V30 14 H 75.914000 56.051700 43.055900 0
M  V30 15 H 74.069500 58.451800 42.521100 0
M  V30 16 H 73.675900 57.016200 43.435700 0
M  V30 17 H 73.196600 58.346000 40.162400 0
M  V30 18 H 74.042400 54.923600 42.962800 0
M  V30 19 R 73.565700 53.118300 42.133400 0
M  V30 END ATOM
M  V30 BEGIN BOND
M  V30 1 1 2 1
M  V30 2 1 3 2
M  V30 3 1 4 3
M  V30 4 1 5 4
M  V30 5 2 6 5
M  V30 6 1 7 6
M  V30 7 1 8 4
M  V30 8 2 8 7
M  V30 9 1 9 8
M  V30 10 1 10 1
M  V30 11 1 11 1
M  V30 12 1 12 1
M  V30 13 1 13 2
M  V30 14 1 14 2
M  V30 15 1 15 3
M  V30 16 1 16 3
M  V30 17 1 17 5
M  V30 18 1 18 9
M  V30 19 1 19 9
M  V30 END BOND
M  V30 END CTAB
M  END
$$$$
R-group 711 (19108-1)
     RDKit          3D

  0  0  0  0  0  0  0  0  0  0999 V3000
M  V30 BEGIN CTAB
M  V30 COUNTS 12 12 0 0 1
M  V30 BEGIN ATOM
M  V30 1 C 74.113600 54.810400 41.897700 0
M  V30 2 N 73.672100 55.615900 40.945200 0
M  V30 3 N 73.896400 56.860000 41.386000 0
M  V30 4 C 73.234300 57.953800 40.707600 0
M  V30 5 C 74.668200 56.858000 42.524300 0
M  V30 6 C 74.859100 55.556100 42.848500 0
M  V30 7 F 75.465800 55.109700 43.973000 0
M  V30 8 H 73.271600 58.856600 41.321100 0
M  V30 9 H 73.672000 58.112400 39.721700 0
M  V30 10 H 72.187200 57.701600 40.547500 0
M  V30 11 H 74.935300 57.745300 43.068500 0
M  V30 12 R 73.683700 53.363800 41.885200 0
M  V30 END ATOM
M  V30 BEGIN BOND
M  V30 1 2 2 1
M  V30 2 1 3 2
M  V30 3 1 4 3
M  V30 4 1 5 3
M  V30 5 1 6 1
M  V30 6 2 6 5
M  V30 7 1 7 6
M  V30 8 1 8 4
M  V30 9 1 9 4
M  V30 10 1 10 4
M  V30 11 1 11 5
M  V30 12 1 12 1
M  V30 END BOND
M  V30 END CTAB
M  END
$$$$
R-group 712 (4702-2)
     RDKit          3D

  0  0  0  0  0  0  0  0  0  0999 V3000
M  V30 BEGIN CTAB
M  V30 COUNTS 15 14 0 0 1
M  V30 BEGIN ATOM
M  V30 1 C 73.683000 54.902400 41.692500 0
M  V30 2 C 73.520000 55.667400 42.998800 0
M  V30 3 C 74.089100 57.062400 42.885300 0 CFG=2
M  V30 4 C 73.558700 57.835300 41.667000 0
M  V30 5 O 75.497000 56.861500 42.924300 0
M  V30 6 H 74.687100 55.069500 41.301000 0
M  V30 7 H 73.006000 55.341200 40.957800 0
M  V30 8 H 72.475000 55.687500 43.313700 0
M  V30 9 H 74.071900 55.199500 43.806800 0
M  V30 10 H 73.759000 57.652600 43.726800 0
M  V30 11 H 72.485900 57.664000 41.524000 0
M  V30 12 H 73.659500 58.895600 41.833300 0
M  V30 13 H 74.077200 57.598700 40.741300 0
M  V30 14 H 75.856400 57.359400 43.639800 0
M  V30 15 R 73.428200 53.399300 41.764000 0
M  V30 END ATOM
M  V30 BEGIN BOND
M  V30 1 1 2 1
M  V30 2 1 3 2
M  V30 3 1 4 3
M  V30 4 1 5 3
M  V30 5 1 6 1
M  V30 6 1 7 1
M  V30 7 1 8 2
M  V30 8 1 9 2
M  V30 9 1 3 10 CFG=1
M  V30 10 1 11 4
M  V30 11 1 12 4
M  V30 12 1 13 4
M  V30 13 1 14 5
M  V30 14 1 15 1
M  V30 END BOND
M  V30 END CTAB
M  END
$$$$
R-group 713 (636-1)
     RDKit          3D

  0  0  0  0  0  0  0  0  0  0999 V3000
M  V30 BEGIN CTAB
M  V30 COUNTS 9 8 0 0 1
M  V30 BEGIN ATOM
M  V30 1 C 75.622500 56.961600 42.227100 0
M  V30 2 O 75.271900 55.639400 41.881400 0
M  V30 3 C 73.939800 55.311800 42.245700 0
M  V30 4 H 76.640400 57.176300 41.905000 0
M  V30 5 H 74.955700 57.657900 41.722400 0
M  V30 6 H 75.564200 57.123500 43.305000 0
M  V30 7 H 73.269400 56.023600 41.767800 0
M  V30 8 H 73.819600 55.435400 43.323100 0
M  V30 9 R 73.581600 53.864800 41.830200 0
M  V30 END ATOM
M  V30 BEGIN BOND
M  V30 1 1 2 1
M  V30 2 1 3 2
M  V30 3 1 4 1
M  V30 4 1 5 1
M  V30 5 1 6 1
M  V30 6 1 7 3
M  V30 7 1 8 3
M  V30 8 1 9 3
M  V30 END BOND
M  V30 END CTAB
M  END
$$$$
R-group 714 (6937-1)
     RDKit          3D

  0  0  0  0  0  0  0  0  0  0999 V3000
M  V30 BEGIN CTAB
M  V30 COUNTS 13 13 0 0 1
M  V30 BEGIN ATOM
M  V30 1 C 73.791600 54.667800 41.628600 0
M  V30 2 C 73.274200 55.393200 40.524600 0
M  V30 3 C 73.673000 56.729600 40.430700 0
M  V30 4 N 74.514900 57.257900 41.325400 0
M  V30 5 C 74.979100 56.489300 42.296200 0
M  V30 6 C 76.016800 57.110300 43.202200 0
M  V30 7 N 74.645400 55.229200 42.510600 0
M  V30 8 H 72.593600 54.994900 39.793400 0
M  V30 9 H 73.325300 57.378400 39.639700 0
M  V30 10 H 76.388700 56.400600 43.939700 0
M  V30 11 H 76.849900 57.486000 42.607400 0
M  V30 12 H 75.570200 57.952900 43.725800 0
M  V30 13 R 73.501500 53.189100 41.827000 0
M  V30 END ATOM
M  V30 BEGIN BOND
M  V30 1 2 2 1
M  V30 2 1 3 2
M  V30 3 2 4 3
M  V30 4 1 5 4
M  V30 5 1 6 5
M  V30 6 1 7 1
M  V30 7 2 7 5
M  V30 8 1 8 2
M  V30 9 1 9 3
M  V30 10 1 10 6
M  V30 11 1 11 6
M  V30 12 1 12 6
M  V30 13 1 13 1
M  V30 END BOND
M  V30 END CTAB
M  END
$$$$
R-group 715 (39873-2)
     RDKit          3D

  0  0  0  0  0  0  0  0  0  0999 V3000
M  V30 BEGIN CTAB
M  V30 COUNTS 16 16 0 0 1
M  V30 BEGIN ATOM
M  V30 1 C 71.790700 59.561100 41.647200 0
M  V30 2 O 72.517800 58.458000 41.163600 0
M  V30 3 C 73.281900 57.810300 42.171000 0
M  V30 4 C 73.926200 56.561600 41.614700 0 CFG=1
M  V30 5 C 75.170900 56.031800 42.291900 0
M  V30 6 C 73.883600 55.247600 42.385100 0 CFG=2
M  V30 7 H 71.049300 59.891500 40.924900 0
M  V30 8 H 71.272300 59.282000 42.558200 0
M  V30 9 H 72.449200 60.401400 41.829000 0
M  V30 10 H 72.669400 57.548400 43.034100 0
M  V30 11 H 74.072100 58.460000 42.528800 0
M  V30 12 H 73.958600 56.546400 40.528000 0
M  V30 13 H 75.514000 56.529700 43.197400 0
M  V30 14 H 75.963000 55.647500 41.652000 0
M  V30 15 H 73.355500 55.316100 43.324700 0
M  V30 16 R 73.772700 53.855100 41.759500 0
M  V30 END ATOM
M  V30 BEGIN BOND
M  V30 1 1 2 1
M  V30 2 1 3 2
M  V30 3 1 4 3
M  V30 4 1 5 4
M  V30 5 1 6 4
M  V30 6 1 6 5
M  V30 7 1 7 1
M  V30 8 1 8 1
M  V30 9 1 9 1
M  V30 10 1 10 3
M  V30 11 1 11 3
M  V30 12 1 4 12 CFG=3
M  V30 13 1 13 5
M  V30 14 1 14 5
M  V30 15 1 6 15 CFG=1
M  V30 16 1 16 6
M  V30 END BOND
M  V30 END CTAB
M  END
$$$$
R-group 716 (8726-1)
     RDKit          3D

  0  0  0  0  0  0  0  0  0  0999 V3000
M  V30 BEGIN CTAB
M  V30 COUNTS 13 12 0 0 1
M  V30 BEGIN ATOM
M  V30 1 C 74.078800 55.279000 41.645900 0 CFG=2
M  V30 2 C 75.589100 55.559900 41.542700 0
M  V30 3 O 73.504800 55.931500 40.524700 0
M  V30 4 C 73.525700 55.998000 42.891800 0
M  V30 5 O 73.672300 57.397600 42.744600 0
M  V30 6 H 76.063700 55.259500 42.467600 0
M  V30 7 H 76.067700 55.045500 40.715600 0
M  V30 8 H 75.805000 56.620500 41.409500 0
M  V30 9 H 72.474600 55.772700 43.061300 0
M  V30 10 H 74.059800 55.658500 43.778800 0
M  V30 11 H 73.414300 56.844600 40.766600 0
M  V30 12 H 74.593100 57.606900 42.796700 0
M  V30 13 R 73.672300 53.754200 41.682400 0
M  V30 END ATOM
M  V30 BEGIN BOND
M  V30 1 1 2 1
M  V30 2 1 3 1
M  V30 3 1 4 1
M  V30 4 1 5 4
M  V30 5 1 6 2
M  V30 6 1 7 2
M  V30 7 1 8 2
M  V30 8 1 9 4
M  V30 9 1 10 4
M  V30 10 1 11 3
M  V30 11 1 12 5
M  V30 12 1 1 13 CFG=1
M  V30 END BOND
M  V30 END CTAB
M  END
$$$$
R-group 717 (11009-1)
     RDKit          3D

  0  0  0  0  0  0  0  0  0  0999 V3000
M  V30 BEGIN CTAB
M  V30 COUNTS 11 11 0 0 1
M  V30 BEGIN ATOM
M  V30 1 C 73.038500 54.572300 41.967600 0
M  V30 2 C 74.199600 55.493800 41.839500 0
M  V30 3 C 75.052300 55.916100 42.901000 0
M  V30 4 N 76.068300 56.676800 42.575700 0
M  V30 5 S 76.071800 56.861800 40.924800 0
M  V30 6 C 74.598800 56.028800 40.653400 0
M  V30 7 H 72.296100 54.858000 41.224600 0
M  V30 8 H 72.545500 54.678400 42.924100 0
M  V30 9 H 74.929900 55.645500 43.939900 0
M  V30 10 H 74.175700 55.942900 39.664100 0
M  V30 11 R 73.391500 53.104900 41.689900 0
M  V30 END ATOM
M  V30 BEGIN BOND
M  V30 1 1 2 1
M  V30 2 1 3 2
M  V30 3 2 4 3
M  V30 4 1 5 4
M  V30 5 2 6 2
M  V30 6 1 6 5
M  V30 7 1 7 1
M  V30 8 1 8 1
M  V30 9 1 9 3
M  V30 10 1 10 6
M  V30 11 1 11 1
M  V30 END BOND
M  V30 END CTAB
M  END
$$$$
R-group 718 (4514-1)
     RDKit          3D

  0  0  0  0  0  0  0  0  0  0999 V3000
M  V30 BEGIN CTAB
M  V30 COUNTS 9 8 0 0 1
M  V30 BEGIN ATOM
M  V30 1 N 73.395000 54.547600 42.124100 0
M  V30 2 C 74.336800 55.317000 41.572000 0
M  V30 3 O 75.272300 54.881500 40.913800 0
M  V30 4 C 74.240000 56.806300 41.754400 0
M  V30 5 F 73.506000 57.282900 40.752500 0
M  V30 6 F 73.672300 57.111900 42.920600 0
M  V30 7 F 75.489000 57.257900 41.701300 0
M  V30 8 H 72.721400 54.991000 42.737100 0
M  V30 9 R 73.322800 53.107100 42.015800 0
M  V30 END ATOM
M  V30 BEGIN BOND
M  V30 1 1 2 1
M  V30 2 2 3 2
M  V30 3 1 4 2
M  V30 4 1 5 4
M  V30 5 1 6 4
M  V30 6 1 7 4
M  V30 7 1 8 1
M  V30 8 1 9 1
M  V30 END BOND
M  V30 END CTAB
M  END
$$$$
R-group 719 (25442-1)
     RDKit          3D

  0  0  0  0  0  0  0  0  0  0999 V3000
M  V30 BEGIN CTAB
M  V30 COUNTS 14 14 0 0 1
M  V30 BEGIN ATOM
M  V30 1 C 74.085500 55.292000 41.623900 0 CFG=2
M  V30 2 C 75.604100 55.496200 41.407000 0
M  V30 3 O 76.069800 56.803400 41.694100 0
M  V30 4 C 75.648800 57.160500 42.996500 0
M  V30 5 C 74.133000 57.298300 42.877800 0
M  V30 6 O 73.672000 55.963800 42.805100 0
M  V30 7 H 73.546300 55.766600 40.800400 0
M  V30 8 H 76.071900 54.852800 42.122800 0
M  V30 9 H 75.945300 55.206200 40.416600 0
M  V30 10 H 75.926800 56.405500 43.732900 0
M  V30 11 H 76.142100 58.058000 43.324000 0
M  V30 12 H 73.680700 57.796500 43.724900 0
M  V30 13 H 73.843200 57.871400 41.994600 0
M  V30 14 R 73.660500 53.791700 41.760400 0
M  V30 END ATOM
M  V30 BEGIN BOND
M  V30 1 1 2 1
M  V30 2 1 3 2
M  V30 3 1 4 3
M  V30 4 1 5 4
M  V30 5 1 6 1
M  V30 6 1 6 5
M  V30 7 1 1 7 CFG=3
M  V30 8 1 8 2
M  V30 9 1 9 2
M  V30 10 1 10 4
M  V30 11 1 11 4
M  V30 12 1 12 5
M  V30 13 1 13 5
M  V30 14 1 14 1
M  V30 END BOND
M  V30 END CTAB
M  END
$$$$
R-group 720 (16392-1)
     RDKit          3D

  0  0  0  0  0  0  0  0  0  0999 V3000
M  V30 BEGIN CTAB
M  V30 COUNTS 20 20 0 0 1
M  V30 BEGIN ATOM
M  V30 1 O 73.825800 54.897200 41.979300 0
M  V30 2 C 73.533100 55.664500 43.127400 0
M  V30 3 C 74.040400 57.096600 42.924700 0 CFG=2
M  V30 4 C 73.544100 57.779000 41.632400 0
M  V30 5 C 74.273300 57.257500 40.385100 0
M  V30 6 C 75.785900 57.117900 40.641200 0
M  V30 7 O 76.072200 56.458000 41.861900 0
M  V30 8 C 75.574200 57.071900 43.041800 0
M  V30 9 H 72.460900 55.659300 43.324700 0
M  V30 10 H 74.072300 55.253900 43.982800 0
M  V30 11 H 73.639000 57.702500 43.724900 0
M  V30 12 H 72.472300 57.645500 41.515300 0
M  V30 13 H 73.672200 58.855600 41.725000 0
M  V30 14 H 73.867700 56.290300 40.098600 0
M  V30 15 H 74.070900 57.882200 39.513100 0
M  V30 16 H 76.200100 56.506000 39.849200 0
M  V30 17 H 76.324200 58.058100 40.625300 0
M  V30 18 H 76.020400 58.028100 43.324700 0
M  V30 19 H 75.887700 56.427300 43.862400 0
M  V30 20 R 73.478100 53.530600 41.990300 0
M  V30 END ATOM
M  V30 BEGIN BOND
M  V30 1 1 2 1
M  V30 2 1 3 2
M  V30 3 1 4 3
M  V30 4 1 5 4
M  V30 5 1 6 5
M  V30 6 1 7 6
M  V30 7 1 8 3
M  V30 8 1 8 7
M  V30 9 1 9 2
M  V30 10 1 10 2
M  V30 11 1 3 11 CFG=1
M  V30 12 1 12 4
M  V30 13 1 13 4
M  V30 14 1 14 5
M  V30 15 1 15 5
M  V30 16 1 16 6
M  V30 17 1 17 6
M  V30 18 1 18 8
M  V30 19 1 19 8
M  V30 20 1 20 1
M  V30 END BOND
M  V30 END CTAB
M  END
$$$$
R-group 721 (6603-2)
     RDKit          3D

  0  0  0  0  0  0  0  0  0  0999 V3000
M  V30 BEGIN CTAB
M  V30 COUNTS 8 7 0 0 1
M  V30 BEGIN ATOM
M  V30 1 C 74.424300 55.288200 41.747000 0 CFG=2
M  V30 2 C 74.541800 56.051100 43.073000 0
M  V30 3 F 73.672400 56.037500 40.941100 0
M  V30 4 H 75.405900 55.252200 41.273600 0
M  V30 5 H 75.299000 55.616700 43.724300 0
M  V30 6 H 74.832900 57.087300 42.898500 0
M  V30 7 H 73.591900 56.058500 43.609300 0
M  V30 8 R 73.827000 53.855000 41.860500 0
M  V30 END ATOM
M  V30 BEGIN BOND
M  V30 1 1 2 1
M  V30 2 1 3 1
M  V30 3 1 1 4 CFG=3
M  V30 4 1 5 2
M  V30 5 1 6 2
M  V30 6 1 7 2
M  V30 7 1 8 1
M  V30 END BOND
M  V30 END CTAB
M  END
$$$$
R-group 722 (10134-2)
     RDKit          3D

  0  0  0  0  0  0  0  0  0  0999 V3000
M  V30 BEGIN CTAB
M  V30 COUNTS 12 11 0 0 1
M  V30 BEGIN ATOM
M  V30 1 O 74.468000 54.982300 41.682700 0
M  V30 2 C 73.746200 56.196100 41.800200 0 CFG=1
M  V30 3 C 74.723300 57.130600 42.525300 0
M  V30 4 C 73.380100 56.764300 40.405900 0
M  V30 5 F 72.872300 57.978100 40.587900 0
M  V30 6 F 74.472300 56.858000 39.661100 0
M  V30 7 F 72.485200 56.049000 39.724700 0
M  V30 8 H 72.872400 56.086000 42.443300 0
M  V30 9 H 74.235400 58.056700 42.832400 0
M  V30 10 H 75.134300 56.649300 43.409200 0
M  V30 11 H 75.570500 57.381700 41.887200 0
M  V30 12 R 73.787200 53.762200 41.951200 0
M  V30 END ATOM
M  V30 BEGIN BOND
M  V30 1 1 2 1
M  V30 2 1 3 2
M  V30 3 1 4 2
M  V30 4 1 5 4
M  V30 5 1 6 4
M  V30 6 1 7 4
M  V30 7 1 2 8 CFG=1
M  V30 8 1 9 3
M  V30 9 1 10 3
M  V30 10 1 11 3
M  V30 11 1 12 1
M  V30 END BOND
M  V30 END CTAB
M  END
$$$$
R-group 723 (31004-3)
     RDKit          3D

  0  0  0  0  0  0  0  0  0  0999 V3000
M  V30 BEGIN CTAB
M  V30 COUNTS 18 18 0 0 1
M  V30 BEGIN ATOM
M  V30 1 C 74.052600 55.270900 41.933200 0 CFG=2
M  V30 2 C 73.571800 55.891700 43.240100 0
M  V30 3 C 73.794300 57.387100 43.105300 0
M  V30 4 C 73.739400 57.661500 41.605200 0 CFG=2
M  V30 5 C 72.684300 58.706800 41.236700 0
M  V30 6 C 73.594800 56.307900 40.889300 0
M  V30 7 H 75.145800 55.298900 41.932900 0
M  V30 8 H 72.499900 55.702300 43.324800 0
M  V30 9 H 74.072800 55.485900 44.116900 0
M  V30 10 H 73.056600 57.951900 43.677300 0
M  V30 11 H 74.782600 57.662300 43.480800 0
M  V30 12 H 74.719000 58.037700 41.326100 0
M  V30 13 H 71.678800 58.458200 41.550900 0
M  V30 14 H 72.872000 59.656200 41.727600 0
M  V30 15 H 72.716200 58.858900 40.162000 0
M  V30 16 H 74.229200 56.280800 40.002600 0
M  V30 17 H 72.576900 56.158900 40.526100 0
M  V30 18 R 73.600700 53.789400 41.763300 0
M  V30 END ATOM
M  V30 BEGIN BOND
M  V30 1 1 2 1
M  V30 2 1 3 2
M  V30 3 1 4 3
M  V30 4 1 5 4
M  V30 5 1 6 1
M  V30 6 1 6 4
M  V30 7 1 1 7 CFG=1
M  V30 8 1 8 2
M  V30 9 1 9 2
M  V30 10 1 10 3
M  V30 11 1 11 3
M  V30 12 1 4 12 CFG=3
M  V30 13 1 13 5
M  V30 14 1 14 5
M  V30 15 1 15 5
M  V30 16 1 16 6
M  V30 17 1 17 6
M  V30 18 1 18 1
M  V30 END BOND
M  V30 END CTAB
M  END
$$$$
R-group 724 (124-2)
     RDKit          3D

  0  0  0  0  0  0  0  0  0  0999 V3000
M  V30 BEGIN CTAB
M  V30 COUNTS 20 20 0 0 1
M  V30 BEGIN ATOM
M  V30 1 O 73.676400 54.841900 41.883000 0
M  V30 2 C 73.509600 55.624400 43.050400 0
M  V30 3 C 74.042700 57.038000 42.839400 0 CFG=2
M  V30 4 C 73.542000 57.767400 41.580500 0
M  V30 5 C 74.220800 57.257900 40.299200 0
M  V30 6 C 75.731400 57.104000 40.501900 0
M  V30 7 C 76.133900 56.441900 41.818100 0
M  V30 8 O 75.463700 57.010600 42.924100 0
M  V30 9 H 72.454100 55.658800 43.310300 0
M  V30 10 H 74.072600 55.206900 43.878600 0
M  V30 11 H 73.700100 57.625800 43.693200 0
M  V30 12 H 72.472300 57.648100 41.482800 0
M  V30 13 H 73.675500 58.838800 41.724200 0
M  V30 14 H 73.797200 56.298500 40.014600 0
M  V30 15 H 74.018600 57.907300 39.446700 0
M  V30 16 H 76.097600 56.459100 39.724900 0
M  V30 17 H 76.251900 58.056800 40.409300 0
M  V30 18 H 76.007800 55.359600 41.783100 0
M  V30 19 H 77.192800 56.622900 41.972100 0
M  V30 20 R 73.455100 53.452100 41.998700 0
M  V30 END ATOM
M  V30 BEGIN BOND
M  V30 1 1 2 1
M  V30 2 1 3 2
M  V30 3 1 4 3
M  V30 4 1 5 4
M  V30 5 1 6 5
M  V30 6 1 7 6
M  V30 7 1 8 3
M  V30 8 1 8 7
M  V30 9 1 9 2
M  V30 10 1 10 2
M  V30 11 1 3 11 CFG=1
M  V30 12 1 12 4
M  V30 13 1 13 4
M  V30 14 1 14 5
M  V30 15 1 15 5
M  V30 16 1 16 6
M  V30 17 1 17 6
M  V30 18 1 18 7
M  V30 19 1 19 7
M  V30 20 1 20 1
M  V30 END BOND
M  V30 END CTAB
M  END
$$$$
R-group 725 (27-1)
     RDKit          3D

  0  0  0  0  0  0  0  0  0  0999 V3000
M  V30 BEGIN CTAB
M  V30 COUNTS 20 19 0 0 1
M  V30 BEGIN ATOM
M  V30 1 C 73.115600 56.426400 39.255200 0
M  V30 2 C 73.751900 57.658000 39.883000 0
M  V30 3 C 73.667600 57.807200 41.422800 0
M  V30 4 C 74.839600 57.177800 42.201200 0
M  V30 5 C 74.955400 55.656900 42.078900 0
M  V30 6 C 73.616800 54.957600 42.335300 0
M  V30 7 H 73.272300 56.462600 38.181100 0
M  V30 8 H 73.610200 55.523300 39.583300 0
M  V30 9 H 72.047800 56.355500 39.463000 0
M  V30 10 H 73.284400 58.533000 39.431800 0
M  V30 11 H 74.793900 57.658000 39.562500 0
M  V30 12 H 72.701100 57.474900 41.791700 0
M  V30 13 H 73.671300 58.858000 41.705200 0
M  V30 14 H 74.733100 57.438900 43.255100 0
M  V30 15 H 75.780100 57.624300 41.873700 0
M  V30 16 H 75.680000 55.304000 42.807600 0
M  V30 17 H 75.359100 55.415900 41.100800 0
M  V30 18 H 72.872300 55.355700 41.669000 0
M  V30 19 H 73.279600 55.246000 43.324700 0
M  V30 20 R 73.555500 53.438500 42.132800 0
M  V30 END ATOM
M  V30 BEGIN BOND
M  V30 1 1 2 1
M  V30 2 1 3 2
M  V30 3 1 4 3
M  V30 4 1 5 4
M  V30 5 1 6 5
M  V30 6 1 7 1
M  V30 7 1 8 1
M  V30 8 1 9 1
M  V30 9 1 10 2
M  V30 10 1 11 2
M  V30 11 1 12 3
M  V30 12 1 13 3
M  V30 13 1 14 4
M  V30 14 1 15 4
M  V30 15 1 16 5
M  V30 16 1 17 5
M  V30 17 1 18 6
M  V30 18 1 19 6
M  V30 19 1 20 6
M  V30 END BOND
M  V30 END CTAB
M  END
$$$$
R-group 726 (13213-1)
     RDKit          3D

  0  0  0  0  0  0  0  0  0  0999 V3000
M  V30 BEGIN CTAB
M  V30 COUNTS 11 10 0 0 1
M  V30 BEGIN ATOM
M  V30 1 N 74.406000 55.381600 41.717300 0
M  V30 2 C 75.599900 55.611200 40.895900 0
M  V30 3 C 73.726000 56.485900 42.083400 0
M  V30 4 N 73.272300 56.458100 43.324400 0
M  V30 5 O 73.655900 57.513900 41.425300 0
M  V30 6 H 76.343000 56.189300 41.453100 0
M  V30 7 H 76.071700 54.692300 40.585500 0
M  V30 8 H 75.355200 56.164400 39.984700 0
M  V30 9 H 73.248200 55.595300 43.870200 0
M  V30 10 H 72.836800 57.289900 43.687100 0
M  V30 11 R 73.863900 54.000400 41.854100 0
M  V30 END ATOM
M  V30 BEGIN BOND
M  V30 1 1 2 1
M  V30 2 1 3 1
M  V30 3 1 4 3
M  V30 4 2 5 3
M  V30 5 1 6 2
M  V30 6 1 7 2
M  V30 7 1 8 2
M  V30 8 1 9 4
M  V30 9 1 10 4
M  V30 10 1 11 1
M  V30 END BOND
M  V30 END CTAB
M  END
$$$$
R-group 727 (6654-1)
     RDKit          3D

  0  0  0  0  0  0  0  0  0  0999 V3000
M  V30 BEGIN CTAB
M  V30 COUNTS 9 8 0 0 1
M  V30 BEGIN ATOM
M  V30 1 C 73.920100 55.263600 42.094100 0 CFG=1
M  V30 2 C 75.373000 55.598700 42.486200 0
M  V30 3 C 73.550100 56.165600 40.993700 0
M  V30 4 N 73.272100 56.870300 40.123100 0
M  V30 5 H 73.289700 55.570600 42.930400 0
M  V30 6 H 75.500800 56.677600 42.595200 0
M  V30 7 H 75.669200 55.151400 43.433600 0
M  V30 8 H 76.071800 55.267800 41.721400 0
M  V30 9 R 73.599100 53.758500 41.793700 0
M  V30 END ATOM
M  V30 BEGIN BOND
M  V30 1 1 2 1
M  V30 2 1 3 1
M  V30 3 3 4 3
M  V30 4 1 1 5 CFG=1
M  V30 5 1 6 2
M  V30 6 1 7 2
M  V30 7 1 8 2
M  V30 8 1 9 1
M  V30 END BOND
M  V30 END CTAB
M  END
$$$$
R-group 728 (39714-2)
     RDKit          3D

  0  0  0  0  0  0  0  0  0  0999 V3000
M  V30 BEGIN CTAB
M  V30 COUNTS 9 8 0 0 1
M  V30 BEGIN ATOM
M  V30 1 O 74.055500 55.007900 41.598000 0
M  V30 2 C 74.103100 55.833000 42.667400 0 CFG=2
M  V30 3 C 74.050400 57.275100 42.158100 0
M  V30 4 F 75.272500 55.658500 43.324700 0
M  V30 5 H 73.259300 55.658100 43.329300 0
M  V30 6 H 73.135600 57.455000 41.593000 0
M  V30 7 H 74.073700 57.982600 42.987000 0
M  V30 8 H 74.896300 57.492600 41.505700 0
M  V30 9 R 73.644900 53.660700 41.805300 0
M  V30 END ATOM
M  V30 BEGIN BOND
M  V30 1 1 2 1
M  V30 2 1 3 2
M  V30 3 1 4 2
M  V30 4 1 2 5 CFG=1
M  V30 5 1 6 3
M  V30 6 1 7 3
M  V30 7 1 8 3
M  V30 8 1 9 1
M  V30 END BOND
M  V30 END CTAB
M  END
$$$$
R-group 729 (853-1)
     RDKit          3D

  0  0  0  0  0  0  0  0  0  0999 V3000
M  V30 BEGIN CTAB
M  V30 COUNTS 7 7 0 0 1
M  V30 BEGIN ATOM
M  V30 1 C 74.104200 55.040300 41.931600 0
M  V30 2 N 74.872600 55.592700 42.911000 0
M  V30 3 C 74.904600 56.857900 42.524600 0
M  V30 4 O 74.189100 57.119500 41.410700 0
M  V30 5 N 73.672900 55.887600 41.000900 0
M  V30 6 H 75.419400 57.639900 43.064300 0
M  V30 7 R 73.706100 53.587100 41.923900 0
M  V30 END ATOM
M  V30 BEGIN BOND
M  V30 1 1 2 1
M  V30 2 2 3 2
M  V30 3 1 4 3
M  V30 4 2 5 1
M  V30 5 1 5 4
M  V30 6 1 6 3
M  V30 7 1 7 1
M  V30 END BOND
M  V30 END CTAB
M  END
$$$$
R-group 730 (17782-1)
     RDKit          3D

  0  0  0  0  0  0  0  0  0  0999 V3000
M  V30 BEGIN CTAB
M  V30 COUNTS 17 17 0 0 1
M  V30 BEGIN ATOM
M  V30 1 O 73.539900 54.755400 42.118700 0
M  V30 2 C 74.667400 55.614200 41.960700 0 CFG=2
M  V30 3 C 74.618000 56.393200 43.261000 0
M  V30 4 C 73.299700 57.200800 43.294300 0
M  V30 5 C 73.077300 58.024500 42.013300 0
M  V30 6 O 73.272200 57.257300 40.831600 0
M  V30 7 C 74.534100 56.603000 40.782100 0
M  V30 8 H 75.613600 55.074000 41.894900 0
M  V30 9 H 74.673400 55.657800 44.073300 0
M  V30 10 H 75.479900 57.055500 43.340700 0
M  V30 11 H 72.472400 56.512500 43.453100 0
M  V30 12 H 73.272700 57.893000 44.124700 0
M  V30 13 H 72.076500 58.457000 42.003600 0
M  V30 14 H 73.760800 58.858100 42.003100 0
M  V30 15 H 75.340600 57.335600 40.827300 0
M  V30 16 H 74.640800 56.129700 39.810200 0
M  V30 17 R 73.621100 53.414300 41.694600 0
M  V30 END ATOM
M  V30 BEGIN BOND
M  V30 1 1 2 1
M  V30 2 1 3 2
M  V30 3 1 4 3
M  V30 4 1 5 4
M  V30 5 1 6 5
M  V30 6 1 7 2
M  V30 7 1 7 6
M  V30 8 1 2 8 CFG=3
M  V30 9 1 9 3
M  V30 10 1 10 3
M  V30 11 1 11 4
M  V30 12 1 12 4
M  V30 13 1 13 5
M  V30 14 1 14 5
M  V30 15 1 15 7
M  V30 16 1 16 7
M  V30 17 1 17 1
M  V30 END BOND
M  V30 END CTAB
M  END
$$$$
R-group 731 (40424-1)
     RDKit          3D

  0  0  0  0  0  0  0  0  0  0999 V3000
M  V30 BEGIN CTAB
M  V30 COUNTS 17 16 0 0 1
M  V30 BEGIN ATOM
M  V30 1 C 73.184300 54.708200 41.911900 0
M  V30 2 C 74.346500 55.698000 41.748800 0 CFG=1
M  V30 3 C 74.284200 56.476700 40.416900 0
M  V30 4 C 74.362300 56.693100 42.919600 0
M  V30 5 C 75.759500 56.803800 43.492100 0
M  V30 6 F 76.072200 55.658100 44.124700 0
M  V30 7 H 72.676500 54.804900 42.871500 0
M  V30 8 H 72.472200 54.996000 41.160500 0
M  V30 9 H 75.275700 55.128300 41.751000 0
M  V30 10 H 73.410400 57.127900 40.382400 0
M  V30 11 H 75.165200 57.106700 40.289100 0
M  V30 12 H 74.219800 55.820800 39.552400 0
M  V30 13 H 73.674500 56.418800 43.723900 0
M  V30 14 H 74.028600 57.678300 42.591400 0
M  V30 15 H 75.762700 57.650200 44.175000 0
M  V30 16 H 76.486100 56.995500 42.705700 0
M  V30 17 R 73.436600 53.220800 41.658000 0
M  V30 END ATOM
M  V30 BEGIN BOND
M  V30 1 1 2 1
M  V30 2 1 3 2
M  V30 3 1 4 2
M  V30 4 1 5 4
M  V30 5 1 6 5
M  V30 6 1 7 1
M  V30 7 1 8 1
M  V30 8 1 2 9 CFG=3
M  V30 9 1 10 3
M  V30 10 1 11 3
M  V30 11 1 12 3
M  V30 12 1 13 4
M  V30 13 1 14 4
M  V30 14 1 15 5
M  V30 15 1 16 5
M  V30 16 1 17 1
M  V30 END BOND
M  V30 END CTAB
M  END
$$$$
R-group 732 (11938-1)
     RDKit          3D

  0  0  0  0  0  0  0  0  0  0999 V3000
M  V30 BEGIN CTAB
M  V30 COUNTS 7 7 0 0 1
M  V30 BEGIN ATOM
M  V30 1 C 73.909100 54.756400 41.904400 0
M  V30 2 C 73.703200 55.662100 40.814700 0
M  V30 3 N 74.188600 56.858600 40.988100 0
M  V30 4 S 74.847100 56.857900 42.519300 0
M  V30 5 N 74.529100 55.295600 42.924500 0
M  V30 6 H 73.221200 55.448200 39.870900 0
M  V30 7 R 73.538400 53.301000 41.937300 0
M  V30 END ATOM
M  V30 BEGIN BOND
M  V30 1 1 2 1
M  V30 2 2 3 2
M  V30 3 1 4 3
M  V30 4 2 5 1
M  V30 5 1 5 4
M  V30 6 1 6 2
M  V30 7 1 7 1
M  V30 END BOND
M  V30 END CTAB
M  END
$$$$
R-group 733 (3234-1)
     RDKit          3D

  0  0  0  0  0  0  0  0  0  0999 V3000
M  V30 BEGIN CTAB
M  V30 COUNTS 17 17 0 0 1
M  V30 BEGIN ATOM
M  V30 1 O 73.610300 54.652400 42.431700 0
M  V30 2 C 74.900700 55.215900 42.321100 0
M  V30 3 C 74.704800 56.631200 41.835000 0
M  V30 4 C 74.437900 57.499300 43.048500 0
M  V30 5 C 75.757900 57.064700 40.818200 0
M  V30 6 O 74.834800 56.857400 39.724800 0
M  V30 7 C 73.745500 56.844600 40.656500 0
M  V30 8 H 75.398900 55.182300 43.291300 0
M  V30 9 H 75.545300 54.667700 41.640200 0
M  V30 10 H 74.054400 58.458000 42.738100 0
M  V30 11 H 73.670700 57.063800 43.691300 0
M  V30 12 H 75.339600 57.661000 43.640800 0
M  V30 13 H 76.076400 58.094800 40.924000 0
M  V30 14 H 76.627500 56.411700 40.751800 0
M  V30 15 H 73.042400 56.035900 40.469000 0
M  V30 16 H 73.222600 57.802500 40.671300 0
M  V30 17 R 73.479700 53.275800 42.128600 0
M  V30 END ATOM
M  V30 BEGIN BOND
M  V30 1 1 2 1
M  V30 2 1 3 2
M  V30 3 1 4 3
M  V30 4 1 5 3
M  V30 5 1 6 5
M  V30 6 1 7 3
M  V30 7 1 7 6
M  V30 8 1 8 2
M  V30 9 1 9 2
M  V30 10 1 10 4
M  V30 11 1 11 4
M  V30 12 1 12 4
M  V30 13 1 13 5
M  V30 14 1 14 5
M  V30 15 1 15 7
M  V30 16 1 16 7
M  V30 17 1 17 1
M  V30 END BOND
M  V30 END CTAB
M  END
$$$$
R-group 734 (20723-2)
     RDKit          3D

  0  0  0  0  0  0  0  0  0  0999 V3000
M  V30 BEGIN CTAB
M  V30 COUNTS 16 17 0 0 1
M  V30 BEGIN ATOM
M  V30 1 N 74.124000 55.216500 41.725100 0
M  V30 2 C 73.543200 56.023700 40.636800 0
M  V30 3 C 73.856900 57.508800 40.749900 0
M  V30 4 O 73.272200 57.987400 41.940700 0
M  V30 5 C 73.892900 57.405400 43.071100 0 CFG=1
M  V30 6 C 72.933500 56.457800 43.745600 0
M  V30 7 C 74.163300 55.908000 43.035600 0 CFG=1
M  V30 8 H 73.956800 55.696200 39.685000 0
M  V30 9 H 72.472200 55.879600 40.529000 0
M  V30 10 H 74.938500 57.657600 40.776100 0
M  V30 11 H 73.451500 58.053900 39.896800 0
M  V30 12 H 74.550000 58.058100 43.641100 0
M  V30 13 H 72.872200 56.458000 44.829300 0
M  V30 14 H 72.039700 56.058000 43.324700 0
M  V30 15 H 74.968400 55.528600 43.661000 0
M  V30 16 R 73.698400 53.793400 41.766500 0
M  V30 END ATOM
M  V30 BEGIN BOND
M  V30 1 1 2 1
M  V30 2 1 3 2
M  V30 3 1 4 3
M  V30 4 1 5 4
M  V30 5 1 6 5
M  V30 6 1 7 1
M  V30 7 1 7 5
M  V30 8 1 7 6
M  V30 9 1 8 2
M  V30 10 1 9 2
M  V30 11 1 10 3
M  V30 12 1 11 3
M  V30 13 1 5 12 CFG=1
M  V30 14 1 13 6
M  V30 15 1 14 6
M  V30 16 1 7 15 CFG=1
M  V30 17 1 16 1
M  V30 END BOND
M  V30 END CTAB
M  END
$$$$
R-group 735 (1432-2)
     RDKit          3D

  0  0  0  0  0  0  0  0  0  0999 V3000
M  V30 BEGIN CTAB
M  V30 COUNTS 15 14 0 0 1
M  V30 BEGIN ATOM
M  V30 1 C 73.442200 57.870600 42.785900 0
M  V30 2 C 73.272200 56.425400 42.313900 0
M  V30 3 C 74.427200 55.428400 42.469900 0 CFG=2
M  V30 4 O 75.527900 55.753000 41.630600 0
M  V30 5 C 76.221000 56.949800 41.949800 0
M  V30 6 H 72.472300 58.347000 42.924700 0
M  V30 7 H 73.982600 57.935100 43.724700 0
M  V30 8 H 73.962800 58.458000 42.038100 0
M  V30 9 H 72.924600 56.448600 41.281100 0
M  V30 10 H 72.472300 56.015100 42.925600 0
M  V30 11 H 74.758300 55.467600 43.508800 0
M  V30 12 H 77.272200 56.858000 41.724700 0
M  V30 13 H 75.860900 57.762100 41.324700 0
M  V30 14 H 76.149900 57.226100 43.002600 0
M  V30 15 R 73.933400 53.972000 42.161800 0
M  V30 END ATOM
M  V30 BEGIN BOND
M  V30 1 1 2 1
M  V30 2 1 3 2
M  V30 3 1 4 3
M  V30 4 1 5 4
M  V30 5 1 6 1
M  V30 6 1 7 1
M  V30 7 1 8 1
M  V30 8 1 9 2
M  V30 9 1 10 2
M  V30 10 1 3 11 CFG=1
M  V30 11 1 12 5
M  V30 12 1 13 5
M  V30 13 1 14 5
M  V30 14 1 15 3
M  V30 END BOND
M  V30 END CTAB
M  END
$$$$
R-group 736 (7047-2)
     RDKit          3D

  0  0  0  0  0  0  0  0  0  0999 V3000
M  V30 BEGIN CTAB
M  V30 COUNTS 12 12 0 0 1
M  V30 BEGIN ATOM
M  V30 1 C 74.341000 55.615600 42.592600 0 CFG=1
M  V30 2 C 75.753400 55.917100 43.060500 0
M  V30 3 C 73.138900 56.249500 43.265400 0
M  V30 4 C 73.655500 56.828600 41.979400 0
M  V30 5 F 74.073100 58.126200 42.151100 0
M  V30 6 F 72.872100 56.694500 40.855800 0
M  V30 7 H 75.827100 56.932500 43.446700 0
M  V30 8 H 76.072900 55.248700 43.855600 0
M  V30 9 H 76.438900 55.845300 42.217100 0
M  V30 10 H 72.227500 55.659300 43.304200 0
M  V30 11 H 73.272300 56.895600 44.125300 0
M  V30 12 R 74.133200 54.197300 41.969200 0
M  V30 END ATOM
M  V30 BEGIN BOND
M  V30 1 1 2 1
M  V30 2 1 3 1
M  V30 3 1 4 1
M  V30 4 1 4 3
M  V30 5 1 5 4
M  V30 6 1 6 4
M  V30 7 1 7 2
M  V30 8 1 8 2
M  V30 9 1 9 2
M  V30 10 1 10 3
M  V30 11 1 11 3
M  V30 12 1 1 12 CFG=3
M  V30 END BOND
M  V30 END CTAB
M  END
$$$$
R-group 737 (2400-1)
     RDKit          3D

  0  0  0  0  0  0  0  0  0  0999 V3000
M  V30 BEGIN CTAB
M  V30 COUNTS 12 12 0 0 1
M  V30 BEGIN ATOM
M  V30 1 C 73.673400 54.456400 41.515900 0
M  V30 2 C 73.537200 55.345400 40.405600 0
M  V30 3 N 73.719900 56.606300 40.737800 0
M  V30 4 N 74.001700 56.519100 42.050200 0
M  V30 5 C 74.069500 57.657700 42.862900 0
M  V30 6 F 73.051700 57.675800 43.723700 0
M  V30 7 F 75.238500 57.658600 43.506200 0
M  V30 8 C 74.069300 55.259200 42.524700 0
M  V30 9 H 73.258900 55.127200 39.385500 0
M  V30 10 H 74.003300 58.542000 42.236400 0
M  V30 11 H 74.256000 55.071700 43.571300 0
M  V30 12 R 73.427000 52.991400 41.608000 0
M  V30 END ATOM
M  V30 BEGIN BOND
M  V30 1 1 2 1
M  V30 2 2 3 2
M  V30 3 1 4 3
M  V30 4 1 5 4
M  V30 5 1 6 5
M  V30 6 1 7 5
M  V30 7 2 8 1
M  V30 8 1 8 4
M  V30 9 1 9 2
M  V30 10 1 10 5
M  V30 11 1 11 8
M  V30 12 1 12 1
M  V30 END BOND
M  V30 END CTAB
M  END
$$$$
R-group 738 (5174-1)
     RDKit          3D

  0  0  0  0  0  0  0  0  0  0999 V3000
M  V30 BEGIN CTAB
M  V30 COUNTS 14 14 0 0 1
M  V30 BEGIN ATOM
M  V30 1 C 73.739500 54.794300 41.473900 0
M  V30 2 O 73.358300 55.351300 40.441800 0
M  V30 3 N 74.448900 55.415700 42.408400 0
M  V30 4 C 74.848800 56.760600 42.349700 0
M  V30 5 C 73.742400 57.657900 42.121300 0
M  V30 6 N 72.872300 58.390700 41.928700 0
M  V30 7 C 75.925900 57.117700 43.326400 0
M  V30 8 C 76.230300 57.111500 41.845500 0
M  V30 9 H 76.364300 56.323700 43.925200 0
M  V30 10 H 75.670300 58.004400 43.872300 0
M  V30 11 H 76.352900 58.057700 41.326100 0
M  V30 12 H 76.835500 56.295900 41.457800 0
M  V30 13 H 74.699900 54.891900 43.233400 0
M  V30 14 R 73.465400 53.312400 41.739400 0
M  V30 END ATOM
M  V30 BEGIN BOND
M  V30 1 2 2 1
M  V30 2 1 3 1
M  V30 3 1 4 3
M  V30 4 1 5 4
M  V30 5 3 6 5
M  V30 6 1 7 4
M  V30 7 1 8 4
M  V30 8 1 8 7
M  V30 9 1 9 7
M  V30 10 1 10 7
M  V30 11 1 11 8
M  V30 12 1 12 8
M  V30 13 1 13 3
M  V30 14 1 14 1
M  V30 END BOND
M  V30 END CTAB
M  END
$$$$
R-group 739 (13475-2)
     RDKit          3D

  0  0  0  0  0  0  0  0  0  0999 V3000
M  V30 BEGIN CTAB
M  V30 COUNTS 10 10 0 0 1
M  V30 BEGIN ATOM
M  V30 1 N 73.812900 55.086000 41.973700 0
M  V30 2 C 73.915300 55.920700 43.171900 0
M  V30 3 C 74.242800 57.116200 42.264700 0 CFG=2
M  V30 4 F 73.268000 58.024500 42.207600 0
M  V30 5 C 74.073000 56.133000 41.114700 0
M  V30 6 O 74.083200 56.240200 39.906300 0
M  V30 7 H 72.979000 56.067700 43.721800 0
M  V30 8 H 74.738800 55.647300 43.824400 0
M  V30 9 H 75.245900 57.523400 42.376100 0
M  V30 10 R 73.494200 53.671300 41.813700 0
M  V30 END ATOM
M  V30 BEGIN BOND
M  V30 1 1 2 1
M  V30 2 1 3 2
M  V30 3 1 4 3
M  V30 4 1 5 1
M  V30 5 1 5 3
M  V30 6 2 6 5
M  V30 7 1 7 2
M  V30 8 1 8 2
M  V30 9 1 3 9 CFG=1
M  V30 10 1 10 1
M  V30 END BOND
M  V30 END CTAB
M  END
$$$$
R-group 740 (1231-1)
     RDKit          3D

  0  0  0  0  0  0  0  0  0  0999 V3000
M  V30 BEGIN CTAB
M  V30 COUNTS 11 11 0 0 1
M  V30 BEGIN ATOM
M  V30 1 C 74.250400 54.821700 41.697800 0
M  V30 2 C 73.674300 55.718500 42.587300 0
M  V30 3 C 74.287100 56.857300 42.317400 0
M  V30 4 C 73.954700 58.118200 42.927000 0
M  V30 5 O 75.285300 56.712400 41.409100 0
M  V30 6 N 75.267800 55.361800 41.018200 0
M  V30 7 H 72.877700 55.568200 43.319700 0
M  V30 8 H 73.001000 58.048000 43.456900 0
M  V30 9 H 74.723500 58.429700 43.649000 0
M  V30 10 H 73.797700 58.857700 42.138300 0
M  V30 11 R 73.795000 53.409100 41.679800 0
M  V30 END ATOM
M  V30 BEGIN BOND
M  V30 1 1 2 1
M  V30 2 2 3 2
M  V30 3 1 4 3
M  V30 4 1 5 3
M  V30 5 2 6 1
M  V30 6 1 6 5
M  V30 7 1 7 2
M  V30 8 1 8 4
M  V30 9 1 9 4
M  V30 10 1 10 4
M  V30 11 1 11 1
M  V30 END BOND
M  V30 END CTAB
M  END
$$$$
R-group 741 (42270-1)
     RDKit          3D

  0  0  0  0  0  0  0  0  0  0999 V3000
M  V30 BEGIN CTAB
M  V30 COUNTS 21 21 0 0 1
M  V30 BEGIN ATOM
M  V30 1 C 73.991500 55.320300 42.017600 0
M  V30 2 C 73.323400 55.968700 43.238300 0
M  V30 3 C 75.499100 55.636000 42.162600 0
M  V30 4 C 73.425300 56.041400 40.783200 0
M  V30 5 C 73.381400 57.575100 40.734300 0
M  V30 6 C 73.725300 57.469800 39.262900 0
M  V30 7 C 74.202300 56.064700 39.469200 0
M  V30 8 H 73.371200 57.056300 43.243400 0
M  V30 9 H 72.275200 55.682100 43.324700 0
M  V30 10 H 73.856300 55.660900 44.123400 0
M  V30 11 H 75.717800 56.698000 42.067600 0
M  V30 12 H 75.886100 55.341100 43.136500 0
M  V30 13 H 76.072200 55.120000 41.402000 0
M  V30 14 H 72.428200 55.704700 40.524800 0
M  V30 15 H 72.405300 58.014100 40.935400 0
M  V30 16 H 74.157100 58.058000 41.324700 0
M  V30 17 H 72.872200 57.472400 38.591600 0
M  V30 18 H 74.562600 58.057900 38.924500 0
M  V30 19 H 75.277200 56.057800 39.587600 0
M  V30 20 H 73.864100 55.371700 38.699100 0
M  V30 21 R 73.709300 53.752500 41.985200 0
M  V30 END ATOM
M  V30 BEGIN BOND
M  V30 1 1 2 1
M  V30 2 1 3 1
M  V30 3 1 4 1
M  V30 4 1 5 4
M  V30 5 1 6 5
M  V30 6 1 7 4
M  V30 7 1 7 6
M  V30 8 1 8 2
M  V30 9 1 9 2
M  V30 10 1 10 2
M  V30 11 1 11 3
M  V30 12 1 12 3
M  V30 13 1 13 3
M  V30 14 1 14 4
M  V30 15 1 15 5
M  V30 16 1 16 5
M  V30 17 1 17 6
M  V30 18 1 18 6
M  V30 19 1 19 7
M  V30 20 1 20 7
M  V30 21 1 21 1
M  V30 END BOND
M  V30 END CTAB
M  END
$$$$
R-group 742 (41223-1)
     RDKit          3D

  0  0  0  0  0  0  0  0  0  0999 V3000
M  V30 BEGIN CTAB
M  V30 COUNTS 19 18 0 0 1
M  V30 BEGIN ATOM
M  V30 1 C 73.783300 57.652900 43.295700 0
M  V30 2 O 73.565300 57.654200 41.892100 0
M  V30 3 C 74.485800 56.982900 41.013600 0
M  V30 4 C 73.902200 57.278900 39.610300 0
M  V30 5 C 75.972000 57.420600 41.168500 0
M  V30 6 C 74.471900 55.459400 41.175900 0
M  V30 7 O 75.271600 54.815300 40.524900 0
M  V30 8 N 73.598000 54.848800 41.975400 0
M  V30 9 H 73.024700 58.283000 43.754100 0
M  V30 10 H 74.757300 58.057300 43.557600 0
M  V30 11 H 73.670200 56.662600 43.724700 0
M  V30 12 H 74.576100 56.959200 38.813500 0
M  V30 13 H 72.955000 56.759800 39.458400 0
M  V30 14 H 73.668300 58.336400 39.452200 0
M  V30 15 H 76.628900 56.862100 40.499600 0
M  V30 16 H 76.172700 58.451500 40.927400 0
M  V30 17 H 76.344700 57.244500 42.180100 0
M  V30 18 H 72.970800 55.430500 42.513700 0
M  V30 19 R 73.403400 53.403100 42.057700 0
M  V30 END ATOM
M  V30 BEGIN BOND
M  V30 1 1 2 1
M  V30 2 1 3 2
M  V30 3 1 4 3
M  V30 4 1 5 3
M  V30 5 1 6 3
M  V30 6 2 7 6
M  V30 7 1 8 6
M  V30 8 1 9 1
M  V30 9 1 10 1
M  V30 10 1 11 1
M  V30 11 1 12 4
M  V30 12 1 13 4
M  V30 13 1 14 4
M  V30 14 1 15 5
M  V30 15 1 16 5
M  V30 16 1 17 5
M  V30 17 1 18 8
M  V30 18 1 19 8
M  V30 END BOND
M  V30 END CTAB
M  END
$$$$
R-group 743 (6254-1)
     RDKit          3D

  0  0  0  0  0  0  0  0  0  0999 V3000
M  V30 BEGIN CTAB
M  V30 COUNTS 12 12 0 0 1
M  V30 BEGIN ATOM
M  V30 1 C 74.107100 54.791000 41.896900 0
M  V30 2 C 73.672200 55.681400 40.884100 0
M  V30 3 C 73.888300 56.882200 41.456100 0
M  V30 4 C 73.272600 58.173900 41.160300 0
M  V30 5 N 74.725300 56.681500 42.524100 0
M  V30 6 N 74.872500 55.383300 42.806100 0
M  V30 7 H 73.039400 55.494300 40.030400 0
M  V30 8 H 73.272500 58.425000 40.098800 0
M  V30 9 H 72.247400 58.216800 41.528200 0
M  V30 10 H 73.849700 58.858700 41.737000 0
M  V30 11 H 75.110200 57.401700 43.121100 0
M  V30 12 R 73.704300 53.354200 42.022500 0
M  V30 END ATOM
M  V30 BEGIN BOND
M  V30 1 1 2 1
M  V30 2 2 3 2
M  V30 3 1 4 3
M  V30 4 1 5 3
M  V30 5 2 6 1
M  V30 6 1 6 5
M  V30 7 1 7 2
M  V30 8 1 8 4
M  V30 9 1 9 4
M  V30 10 1 10 4
M  V30 11 1 11 5
M  V30 12 1 12 1
M  V30 END BOND
M  V30 END CTAB
M  END
$$$$
R-group 744 (5018-1)
     RDKit          3D

  0  0  0  0  0  0  0  0  0  0999 V3000
M  V30 BEGIN CTAB
M  V30 COUNTS 15 14 0 0 1
M  V30 BEGIN ATOM
M  V30 1 C 75.716700 56.859700 43.094800 0
M  V30 2 C 74.373100 57.279400 42.486800 0
M  V30 3 C 73.585800 56.138200 41.852500 0 CFG=1
M  V30 4 C 72.940500 56.600300 40.524600 0
M  V30 5 O 74.417300 55.013600 41.632900 0
M  V30 6 H 76.112200 57.657900 43.714800 0
M  V30 7 H 75.610900 55.979600 43.728700 0
M  V30 8 H 76.448600 56.628900 42.320000 0
M  V30 9 H 74.482500 58.058100 41.739800 0
M  V30 10 H 73.762600 57.734000 43.267300 0
M  V30 11 H 72.872200 55.878100 42.620700 0
M  V30 12 H 72.442600 57.561200 40.649600 0
M  V30 13 H 73.703500 56.738600 39.758000 0
M  V30 14 H 72.203100 55.907100 40.124500 0
M  V30 15 R 73.808500 53.740000 41.830400 0
M  V30 END ATOM
M  V30 BEGIN BOND
M  V30 1 1 2 1
M  V30 2 1 3 2
M  V30 3 1 4 3
M  V30 4 1 5 3
M  V30 5 1 6 1
M  V30 6 1 7 1
M  V30 7 1 8 1
M  V30 8 1 9 2
M  V30 9 1 10 2
M  V30 10 1 3 11 CFG=1
M  V30 11 1 12 4
M  V30 12 1 13 4
M  V30 13 1 14 4
M  V30 14 1 15 5
M  V30 END BOND
M  V30 END CTAB
M  END
$$$$
R-group 745 (10092-8)
     RDKit          3D

  0  0  0  0  0  0  0  0  0  0999 V3000
M  V30 BEGIN CTAB
M  V30 COUNTS 17 17 0 0 1
M  V30 BEGIN ATOM
M  V30 1 C 73.693600 55.070000 41.550400 0 CFG=2
M  V30 2 C 74.931700 55.569600 40.829000 0
M  V30 3 C 75.128800 56.910900 41.473200 0 CFG=2
M  V30 4 O 76.472200 57.257900 41.324500 0
M  V30 5 C 74.688600 56.696000 42.919200 0 CFG=2
M  V30 6 C 75.715700 56.008200 43.810800 0
M  V30 7 O 73.664700 55.732400 42.806200 0
M  V30 8 H 72.871800 55.493700 40.986900 0
M  V30 9 H 75.771400 54.903100 41.010700 0
M  V30 10 H 74.793300 55.674100 39.752900 0
M  V30 11 H 74.481000 57.649100 41.001200 0
M  V30 12 H 74.317300 57.619000 43.364600 0
M  V30 13 H 76.524000 56.667200 44.118800 0
M  V30 14 H 75.273800 55.586700 44.706600 0
M  V30 15 H 76.072200 55.144100 43.291400 0
M  V30 16 H 76.640800 58.057800 41.799500 0
M  V30 17 R 73.488000 53.539000 41.675500 0
M  V30 END ATOM
M  V30 BEGIN BOND
M  V30 1 1 2 1
M  V30 2 1 3 2
M  V30 3 1 4 3
M  V30 4 1 5 3
M  V30 5 1 6 5
M  V30 6 1 7 1
M  V30 7 1 7 5
M  V30 8 1 1 8 CFG=3
M  V30 9 1 9 2
M  V30 10 1 10 2
M  V30 11 1 3 11 CFG=3
M  V30 12 1 5 12 CFG=1
M  V30 13 1 13 6
M  V30 14 1 14 6
M  V30 15 1 15 6
M  V30 16 1 16 4
M  V30 17 1 17 1
M  V30 END BOND
M  V30 END CTAB
M  END
$$$$
R-group 746 (20054-1)
     RDKit          3D

  0  0  0  0  0  0  0  0  0  0999 V3000
M  V30 BEGIN CTAB
M  V30 COUNTS 18 19 0 0 1
M  V30 BEGIN ATOM
M  V30 1 N 73.426800 54.557200 41.519600 0
M  V30 2 C 74.388700 55.100800 40.521400 0
M  V30 3 C 74.720600 56.407800 41.149800 0 CFG=2
M  V30 4 C 76.020900 57.131500 41.469100 0
M  V30 5 C 75.456700 57.180800 42.924600 0
M  V30 6 F 74.473900 58.058200 43.200100 0
M  V30 7 F 76.351600 57.078800 43.900200 0
M  V30 8 C 74.884800 55.872000 42.539900 0 CFG=1
M  V30 9 C 73.574200 55.286300 42.794000 0
M  V30 10 H 75.292200 54.494300 40.440800 0
M  V30 11 H 73.934700 55.206300 39.535700 0
M  V30 12 H 73.901500 57.122800 41.056400 0
M  V30 13 H 76.872300 56.473800 41.328600 0
M  V30 14 H 76.166800 58.071100 40.954500 0
M  V30 15 H 75.671700 55.114200 42.628500 0
M  V30 16 H 72.802200 56.042500 42.944600 0
M  V30 17 H 73.675600 54.689700 43.669800 0
M  V30 18 R 73.434300 53.107700 41.712000 0
M  V30 END ATOM
M  V30 BEGIN BOND
M  V30 1 1 2 1
M  V30 2 1 3 2
M  V30 3 1 4 3
M  V30 4 1 5 4
M  V30 5 1 6 5
M  V30 6 1 7 5
M  V30 7 1 8 3
M  V30 8 1 8 5
M  V30 9 1 9 1
M  V30 10 1 9 8
M  V30 11 1 10 2
M  V30 12 1 11 2
M  V30 13 1 3 12 CFG=1
M  V30 14 1 13 4
M  V30 15 1 14 4
M  V30 16 1 8 15 CFG=3
M  V30 17 1 16 9
M  V30 18 1 17 9
M  V30 19 1 18 1
M  V30 END BOND
M  V30 END CTAB
M  END
$$$$
R-group 747 (3528-1)
     RDKit          3D

  0  0  0  0  0  0  0  0  0  0999 V3000
M  V30 BEGIN CTAB
M  V30 COUNTS 15 15 0 0 1
M  V30 BEGIN ATOM
M  V30 1 N 73.739800 54.814900 42.053600 0
M  V30 2 C 75.017200 55.270300 41.540800 0
M  V30 3 C 74.841300 56.432300 42.507600 0
M  V30 4 C 74.154500 57.661000 42.005700 0
M  V30 5 O 76.057200 56.857700 43.055200 0
M  V30 6 C 73.996900 55.479400 43.324900 0
M  V30 7 H 75.854900 54.628100 41.802800 0
M  V30 8 H 74.999300 55.568100 40.493200 0
M  V30 9 H 73.245900 57.441600 41.450500 0
M  V30 10 H 73.943500 58.385300 42.785400 0
M  V30 11 H 74.880700 58.057000 41.324900 0
M  V30 12 H 73.108000 55.969400 43.726500 0
M  V30 13 H 74.586000 54.936400 44.058000 0
M  V30 14 H 75.884900 57.497000 43.729500 0
M  V30 15 R 73.503800 53.370900 42.033500 0
M  V30 END ATOM
M  V30 BEGIN BOND
M  V30 1 1 2 1
M  V30 2 1 3 2
M  V30 3 1 4 3
M  V30 4 1 5 3
M  V30 5 1 6 1
M  V30 6 1 6 3
M  V30 7 1 7 2
M  V30 8 1 8 2
M  V30 9 1 9 4
M  V30 10 1 10 4
M  V30 11 1 11 4
M  V30 12 1 12 6
M  V30 13 1 13 6
M  V30 14 1 14 5
M  V30 15 1 15 1
M  V30 END BOND
M  V30 END CTAB
M  END
$$$$
R-group 748 (43922-3)
     RDKit          3D

  0  0  0  0  0  0  0  0  0  0999 V3000
M  V30 BEGIN CTAB
M  V30 COUNTS 21 22 0 0 1
M  V30 BEGIN ATOM
M  V30 1 O 73.649900 54.617100 42.303100 0
M  V30 2 C 74.880300 55.170300 41.882300 0 CFG=2
M  V30 3 C 75.522800 55.853300 43.093800 0
M  V30 4 C 74.803400 57.177400 43.201300 0
M  V30 5 C 74.569500 57.512900 41.743500 0 CFG=2
M  V30 6 O 73.271400 58.057700 41.658400 0
M  V30 7 C 72.821600 57.815600 40.349200 0
M  V30 8 C 73.248900 56.364400 40.117500 0
M  V30 9 C 74.583100 56.279300 40.878900 0 CFG=2
M  V30 10 H 75.603700 54.467600 41.481600 0
M  V30 11 H 75.477500 55.258000 44.003400 0
M  V30 12 H 76.563400 56.057600 42.868600 0
M  V30 13 H 73.838500 57.042800 43.703700 0
M  V30 14 H 75.348700 57.974200 43.721400 0
M  V30 15 H 75.404400 58.053900 41.324800 0
M  V30 16 H 71.764100 58.037500 40.271800 0
M  V30 17 H 73.278200 58.497100 39.642600 0
M  V30 18 H 73.356900 56.133100 39.056900 0
M  V30 19 H 72.481900 55.714800 40.519200 0
M  V30 20 H 75.407700 56.345600 40.163100 0
M  V30 21 R 73.471600 53.233800 42.093600 0
M  V30 END ATOM
M  V30 BEGIN BOND
M  V30 1 1 2 1
M  V30 2 1 3 2
M  V30 3 1 4 3
M  V30 4 1 5 4
M  V30 5 1 6 5
M  V30 6 1 7 6
M  V30 7 1 8 7
M  V30 8 1 9 2
M  V30 9 1 9 5
M  V30 10 1 9 8
M  V30 11 1 2 10 CFG=3
M  V30 12 1 11 3
M  V30 13 1 12 3
M  V30 14 1 13 4
M  V30 15 1 14 4
M  V30 16 1 5 15 CFG=3
M  V30 17 1 16 7
M  V30 18 1 17 7
M  V30 19 1 18 8
M  V30 20 1 19 8
M  V30 21 1 9 20 CFG=3
M  V30 22 1 21 1
M  V30 END BOND
M  V30 END CTAB
M  END
$$$$
R-group 749 (22565-1)
     RDKit          3D

  0  0  0  0  0  0  0  0  0  0999 V3000
M  V30 BEGIN CTAB
M  V30 COUNTS 11 10 0 0 1
M  V30 BEGIN ATOM
M  V30 1 C 74.135700 55.297400 41.722900 0 CFG=1
M  V30 2 C 73.562400 56.104900 40.528100 0
M  V30 3 C 73.784000 56.024500 43.030300 0
M  V30 4 F 74.059000 57.320400 42.924500 0
M  V30 5 H 75.220400 55.336200 41.607900 0
M  V30 6 H 72.475300 56.113800 40.522600 0
M  V30 7 H 73.893500 57.143700 40.546400 0
M  V30 8 H 73.895700 55.721200 39.566000 0
M  V30 9 H 72.730300 55.937000 43.300300 0
M  V30 10 H 74.372600 55.652100 43.862300 0
M  V30 11 R 73.715300 53.787800 41.781500 0
M  V30 END ATOM
M  V30 BEGIN BOND
M  V30 1 1 2 1
M  V30 2 1 3 1
M  V30 3 1 4 3
M  V30 4 1 1 5 CFG=3
M  V30 5 1 6 2
M  V30 6 1 7 2
M  V30 7 1 8 2
M  V30 8 1 9 3
M  V30 9 1 10 3
M  V30 10 1 11 1
M  V30 END BOND
M  V30 END CTAB
M  END
$$$$
R-group 750 (2395-2)
     RDKit          3D

  0  0  0  0  0  0  0  0  0  0999 V3000
M  V30 BEGIN CTAB
M  V30 COUNTS 16 16 0 0 1
M  V30 BEGIN ATOM
M  V30 1 C 74.151700 55.183500 41.830100 0 CFG=2
M  V30 2 C 73.628300 55.897400 43.099500 0
M  V30 3 C 73.850800 57.410700 43.076800 0
M  V30 4 C 73.418400 57.986100 41.737900 0
M  V30 5 C 74.076700 57.219500 40.587500 0
M  V30 6 O 73.672100 55.864000 40.670200 0
M  V30 7 H 75.242200 55.241500 41.804800 0
M  V30 8 H 72.561000 55.704000 43.219100 0
M  V30 9 H 74.112400 55.482800 43.980500 0
M  V30 10 H 73.272200 57.882300 43.870500 0
M  V30 11 H 74.898400 57.652900 43.260900 0
M  V30 12 H 72.338800 57.953800 41.635700 0
M  V30 13 H 73.671100 59.032900 41.725700 0
M  V30 14 H 73.763000 57.631600 39.626700 0
M  V30 15 H 75.165300 57.267800 40.625900 0
M  V30 16 R 73.719800 53.686800 41.775000 0
M  V30 END ATOM
M  V30 BEGIN BOND
M  V30 1 1 2 1
M  V30 2 1 3 2
M  V30 3 1 4 3
M  V30 4 1 5 4
M  V30 5 1 6 1
M  V30 6 1 6 5
M  V30 7 1 1 7 CFG=1
M  V30 8 1 8 2
M  V30 9 1 9 2
M  V30 10 1 10 3
M  V30 11 1 11 3
M  V30 12 1 12 4
M  V30 13 1 13 4
M  V30 14 1 14 5
M  V30 15 1 15 5
M  V30 16 1 16 1
M  V30 END BOND
M  V30 END CTAB
M  END
$$$$
R-group 751 (10778-1)
     RDKit          3D

  0  0  0  0  0  0  0  0  0  0999 V3000
M  V30 BEGIN CTAB
M  V30 COUNTS 12 11 0 0 1
M  V30 BEGIN ATOM
M  V30 1 C 74.461400 55.257000 42.329300 0
M  V30 2 C 73.485600 56.442900 42.229400 0 CFG=1
M  V30 3 F 74.072400 57.502300 42.768900 0
M  V30 4 C 73.061500 56.875000 40.797000 0
M  V30 5 O 74.132100 56.857800 39.875100 0
M  V30 6 H 74.877600 55.318300 43.335200 0
M  V30 7 H 75.322200 55.410900 41.679200 0
M  V30 8 H 72.654000 56.271000 42.924600 0
M  V30 9 H 72.300800 56.229500 40.372000 0
M  V30 10 H 72.630000 57.876600 40.822800 0
M  V30 11 H 73.862100 57.293200 39.076500 0
M  V30 12 R 73.869900 53.833000 42.132700 0
M  V30 END ATOM
M  V30 BEGIN BOND
M  V30 1 1 2 1
M  V30 2 1 3 2
M  V30 3 1 4 2
M  V30 4 1 5 4
M  V30 5 1 6 1
M  V30 6 1 7 1
M  V30 7 1 2 8 CFG=1
M  V30 8 1 9 4
M  V30 9 1 10 4
M  V30 10 1 11 5
M  V30 11 1 12 1
M  V30 END BOND
M  V30 END CTAB
M  END
$$$$
R-group 752 (10106-6)
     RDKit          3D

  0  0  0  0  0  0  0  0  0  0999 V3000
M  V30 BEGIN CTAB
M  V30 COUNTS 17 17 0 0 1
M  V30 BEGIN ATOM
M  V30 1 C 73.919300 55.169100 42.017200 0 CFG=2
M  V30 2 C 73.327900 56.180200 41.011500 0
M  V30 3 C 74.415000 56.503300 39.983900 0
M  V30 4 C 75.743300 56.233300 40.696100 0 CFG=1
M  V30 5 O 76.472200 57.415200 40.924700 0
M  V30 6 C 75.410900 55.544600 42.017900 0 CFG=1
M  V30 7 O 75.672200 56.457700 43.052600 0
M  V30 8 H 73.508300 55.406400 43.000300 0
M  V30 9 H 72.425300 55.844800 40.521800 0
M  V30 10 H 73.078600 57.098800 41.545400 0
M  V30 11 H 74.323700 57.522000 39.604900 0
M  V30 12 H 74.312300 55.847100 39.120500 0
M  V30 13 H 76.388600 55.574700 40.124700 0
M  V30 14 H 76.072200 54.701700 42.124800 0
M  V30 15 H 76.913000 57.655300 40.121500 0
M  V30 16 H 76.100200 57.186600 42.611000 0
M  V30 17 R 73.596000 53.644000 41.810100 0
M  V30 END ATOM
M  V30 BEGIN BOND
M  V30 1 1 2 1
M  V30 2 1 3 2
M  V30 3 1 4 3
M  V30 4 1 5 4
M  V30 5 1 6 1
M  V30 6 1 6 4
M  V30 7 1 7 6
M  V30 8 1 1 8 CFG=1
M  V30 9 1 9 2
M  V30 10 1 10 2
M  V30 11 1 11 3
M  V30 12 1 12 3
M  V30 13 1 4 13 CFG=3
M  V30 14 1 6 14 CFG=1
M  V30 15 1 15 5
M  V30 16 1 16 7
M  V30 17 1 17 1
M  V30 END BOND
M  V30 END CTAB
M  END
$$$$
R-group 753 (25225-2)
     RDKit          3D

  0  0  0  0  0  0  0  0  0  0999 V3000
M  V30 BEGIN CTAB
M  V30 COUNTS 8 7 0 0 1
M  V30 BEGIN ATOM
M  V30 1 C 74.165300 55.342600 41.780900 0
M  V30 2 F 75.346500 55.464300 41.173800 0
M  V30 3 F 73.273300 56.070200 41.106600 0
M  V30 4 C 74.293100 56.023900 43.154800 0
M  V30 5 F 75.272100 55.492100 43.885300 0
M  V30 6 F 74.558300 57.320200 42.987300 0
M  V30 7 H 73.366100 55.967100 43.724200 0
M  V30 8 R 73.667100 53.859300 41.765500 0
M  V30 END ATOM
M  V30 BEGIN BOND
M  V30 1 1 2 1
M  V30 2 1 3 1
M  V30 3 1 4 1
M  V30 4 1 5 4
M  V30 5 1 6 4
M  V30 6 1 7 4
M  V30 7 1 8 1
M  V30 END BOND
M  V30 END CTAB
M  END
$$$$
R-group 754 (45112-1)
     RDKit          3D

  0  0  0  0  0  0  0  0  0  0999 V3000
M  V30 BEGIN CTAB
M  V30 COUNTS 25 26 0 0 1
M  V30 BEGIN ATOM
M  V30 1 C 74.024300 55.253900 42.037800 0 CFG=2
M  V30 2 C 73.277400 55.992900 43.188400 0
M  V30 3 C 73.288100 57.540200 43.184000 0
M  V30 4 C 73.189100 58.150000 41.784100 0
M  V30 5 C 74.078200 57.428000 40.751600 0 CFG=1
M  V30 6 C 75.633400 57.477400 40.924700 0
M  V30 7 C 76.166400 56.787100 42.155300 0
M  V30 8 C 75.554400 55.402900 42.288200 0
M  V30 9 C 73.649700 55.974000 40.713800 0
M  V30 10 H 72.246900 55.657700 43.321300 0
M  V30 11 H 73.780000 55.670200 44.080300 0
M  V30 12 H 74.169300 57.930000 43.680400 0
M  V30 13 H 72.471800 57.901900 43.806300 0
M  V30 14 H 73.354700 59.221200 41.816200 0
M  V30 15 H 72.157500 58.067700 41.451100 0
M  V30 16 H 73.831100 57.845900 39.772600 0
M  V30 17 H 76.073400 56.979900 40.062100 0
M  V30 18 H 76.088400 58.457900 40.924800 0
M  V30 19 H 77.245500 56.706000 42.049100 0
M  V30 20 H 76.035300 57.382000 43.053400 0
M  V30 21 H 75.801400 55.063500 43.291000 0
M  V30 22 H 76.072000 54.779400 41.571100 0
M  V30 23 H 74.132400 55.540400 39.844600 0
M  V30 24 H 72.578000 55.913300 40.522100 0
M  V30 25 R 73.641000 53.702900 41.998500 0
M  V30 END ATOM
M  V30 BEGIN BOND
M  V30 1 1 2 1
M  V30 2 1 3 2
M  V30 3 1 4 3
M  V30 4 1 5 4
M  V30 5 1 6 5
M  V30 6 1 7 6
M  V30 7 1 8 1
M  V30 8 1 8 7
M  V30 9 1 9 1
M  V30 10 1 9 5
M  V30 11 1 10 2
M  V30 12 1 11 2
M  V30 13 1 12 3
M  V30 14 1 13 3
M  V30 15 1 14 4
M  V30 16 1 15 4
M  V30 17 1 5 16 CFG=3
M  V30 18 1 17 6
M  V30 19 1 18 6
M  V30 20 1 19 7
M  V30 21 1 20 7
M  V30 22 1 21 8
M  V30 23 1 22 8
M  V30 24 1 23 9
M  V30 25 1 24 9
M  V30 26 1 1 25 CFG=3
M  V30 END BOND
M  V30 END CTAB
M  END
$$$$
R-group 755 (10775-1)
     RDKit          3D

  0  0  0  0  0  0  0  0  0  0999 V3000
M  V30 BEGIN CTAB
M  V30 COUNTS 18 18 0 0 1
M  V30 BEGIN ATOM
M  V30 1 C 72.283700 58.725300 42.211400 0
M  V30 2 C 72.991200 57.816500 43.236700 0
M  V30 3 C 74.162400 57.044000 42.621300 0 CFG=1
M  V30 4 C 74.709400 55.806300 43.324700 0
M  V30 5 C 74.582300 55.005100 42.028000 0 CFG=2
M  V30 6 C 73.919100 56.204800 41.362400 0
M  V30 7 H 71.306300 59.048200 42.562300 0
M  V30 8 H 72.872200 59.617700 42.017700 0
M  V30 9 H 72.126000 58.236600 41.251600 0
M  V30 10 H 72.334400 57.096500 43.724700 0
M  V30 11 H 73.272200 58.447300 44.074300 0
M  V30 12 H 75.026400 57.658000 42.413200 0
M  V30 13 H 74.072200 55.444500 44.124600 0
M  V30 14 H 75.737700 55.915200 43.673100 0
M  V30 15 H 75.585800 54.916000 41.607600 0
M  V30 16 H 74.451400 56.567600 40.482000 0
M  V30 17 H 72.872300 56.028500 41.130300 0
M  V30 18 R 73.869000 53.650400 42.047300 0
M  V30 END ATOM
M  V30 BEGIN BOND
M  V30 1 1 2 1
M  V30 2 1 3 2
M  V30 3 1 4 3
M  V30 4 1 5 4
M  V30 5 1 6 3
M  V30 6 1 6 5
M  V30 7 1 7 1
M  V30 8 1 8 1
M  V30 9 1 9 1
M  V30 10 1 10 2
M  V30 11 1 11 2
M  V30 12 1 3 12 CFG=3
M  V30 13 1 13 4
M  V30 14 1 14 4
M  V30 15 1 5 15 CFG=3
M  V30 16 1 16 6
M  V30 17 1 17 6
M  V30 18 1 18 5
M  V30 END BOND
M  V30 END CTAB
M  END
$$$$
R-group 756 (782-1)
     RDKit          3D

  0  0  0  0  0  0  0  0  0  0999 V3000
M  V30 BEGIN CTAB
M  V30 COUNTS 10 10 0 0 1
M  V30 BEGIN ATOM
M  V30 1 C 73.704200 54.855700 41.514500 0
M  V30 2 C 73.399100 55.555400 40.316200 0
M  V30 3 N 73.373600 56.892700 40.260800 0
M  V30 4 C 73.672200 57.520600 41.394900 0
M  V30 5 N 74.066600 56.990200 42.534000 0
M  V30 6 C 74.077500 55.654800 42.603200 0
M  V30 7 H 73.098800 55.075900 39.394000 0
M  V30 8 H 73.603800 58.594300 41.408200 0
M  V30 9 H 74.327200 55.250600 43.577100 0
M  V30 10 R 73.548400 53.339500 41.667900 0
M  V30 END ATOM
M  V30 BEGIN BOND
M  V30 1 2 2 1
M  V30 2 1 3 2
M  V30 3 2 4 3
M  V30 4 1 5 4
M  V30 5 1 6 1
M  V30 6 2 6 5
M  V30 7 1 7 2
M  V30 8 1 8 4
M  V30 9 1 9 6
M  V30 10 1 10 1
M  V30 END BOND
M  V30 END CTAB
M  END
$$$$
R-group 757 (774-1)
     RDKit          3D

  0  0  0  0  0  0  0  0  0  0999 V3000
M  V30 BEGIN CTAB
M  V30 COUNTS 12 12 0 0 1
M  V30 BEGIN ATOM
M  V30 1 C 74.218900 54.828000 41.753600 0
M  V30 2 C 75.268800 55.576100 41.133100 0
M  V30 3 N 75.329300 56.828000 41.559100 0
M  V30 4 N 74.329200 56.880200 42.455900 0
M  V30 5 C 73.984900 58.057700 43.155100 0
M  V30 6 C 73.672200 55.719500 42.587700 0
M  V30 7 H 76.011000 55.257800 40.415100 0
M  V30 8 H 73.157400 57.872000 43.839700 0
M  V30 9 H 74.835800 58.431900 43.723400 0
M  V30 10 H 73.653100 58.788100 42.415700 0
M  V30 11 H 72.850600 55.621000 43.282800 0
M  V30 12 R 73.744000 53.419700 41.695800 0
M  V30 END ATOM
M  V30 BEGIN BOND
M  V30 1 1 2 1
M  V30 2 2 3 2
M  V30 3 1 4 3
M  V30 4 1 5 4
M  V30 5 2 6 1
M  V30 6 1 6 4
M  V30 7 1 7 2
M  V30 8 1 8 5
M  V30 9 1 9 5
M  V30 10 1 10 5
M  V30 11 1 11 6
M  V30 12 1 12 1
M  V30 END BOND
M  V30 END CTAB
M  END
$$$$
R-group 758 (172-1)
     RDKit          3D

  0  0  0  0  0  0  0  0  0  0999 V3000
M  V30 BEGIN CTAB
M  V30 COUNTS 14 13 0 0 1
M  V30 BEGIN ATOM
M  V30 1 C 73.237100 57.577400 43.232100 0
M  V30 2 C 73.277500 56.039800 43.230800 0
M  V30 3 C 73.952200 55.428000 41.996000 0 CFG=1
M  V30 4 C 75.473400 55.737300 42.056700 0
M  V30 5 H 72.702300 57.946100 44.106200 0
M  V30 6 H 74.238100 58.010900 43.262900 0
M  V30 7 H 72.734200 57.974200 42.354400 0
M  V30 8 H 72.259100 55.669200 43.324000 0
M  V30 9 H 73.791200 55.676300 44.111700 0
M  V30 10 H 73.557400 55.956000 41.133700 0
M  V30 11 H 75.887000 55.423600 43.007400 0
M  V30 12 H 76.040700 55.260800 41.269700 0
M  V30 13 H 75.673200 56.802700 41.965000 0
M  V30 14 R 73.580700 53.906500 41.805900 0
M  V30 END ATOM
M  V30 BEGIN BOND
M  V30 1 1 2 1
M  V30 2 1 3 2
M  V30 3 1 4 3
M  V30 4 1 5 1
M  V30 5 1 6 1
M  V30 6 1 7 1
M  V30 7 1 8 2
M  V30 8 1 9 2
M  V30 9 1 3 10 CFG=3
M  V30 10 1 11 4
M  V30 11 1 12 4
M  V30 12 1 13 4
M  V30 13 1 14 3
M  V30 END BOND
M  V30 END CTAB
M  END
$$$$
R-group 759 (25952-1)
     RDKit          3D

  0  0  0  0  0  0  0  0  0  0999 V3000
M  V30 BEGIN CTAB
M  V30 COUNTS 18 17 0 0 1
M  V30 BEGIN ATOM
M  V30 1 C 73.751200 55.043000 41.519200 0
M  V30 2 C 72.882800 55.657200 40.391500 0
M  V30 3 C 73.271800 55.656600 42.855800 0
M  V30 4 C 75.235900 55.422200 41.204400 0
M  V30 5 C 75.663600 56.846400 41.542100 0
M  V30 6 O 75.886700 56.858000 42.924500 0
M  V30 7 H 71.870900 55.257900 40.397200 0
M  V30 8 H 72.813700 56.741500 40.474300 0
M  V30 9 H 73.291100 55.450300 39.401500 0
M  V30 10 H 72.278600 55.296200 43.123700 0
M  V30 11 H 73.939900 55.400400 43.677100 0
M  V30 12 H 73.197400 56.743400 42.813800 0
M  V30 13 H 75.447000 55.284300 40.147500 0
M  V30 14 H 75.932100 54.769300 41.721700 0
M  V30 15 H 74.920300 57.591400 41.260900 0
M  V30 16 H 76.595800 57.099300 41.035500 0
M  V30 17 H 75.063900 56.684100 43.356500 0
M  V30 18 R 73.535500 53.481400 41.624100 0
M  V30 END ATOM
M  V30 BEGIN BOND
M  V30 1 1 2 1
M  V30 2 1 3 1
M  V30 3 1 4 1
M  V30 4 1 5 4
M  V30 5 1 6 5
M  V30 6 1 7 2
M  V30 7 1 8 2
M  V30 8 1 9 2
M  V30 9 1 10 3
M  V30 10 1 11 3
M  V30 11 1 12 3
M  V30 12 1 13 4
M  V30 13 1 14 4
M  V30 14 1 15 5
M  V30 15 1 16 5
M  V30 16 1 17 6
M  V30 17 1 18 1
M  V30 END BOND
M  V30 END CTAB
M  END
$$$$
R-group 760 (6603-1)
     RDKit          3D

  0  0  0  0  0  0  0  0  0  0999 V3000
M  V30 BEGIN CTAB
M  V30 COUNTS 8 7 0 0 1
M  V30 BEGIN ATOM
M  V30 1 C 74.237300 55.587100 42.758400 0 CFG=1
M  V30 2 C 75.692200 56.059500 42.924800 0
M  V30 3 F 73.672300 56.529100 42.007300 0
M  V30 4 H 73.731700 55.661300 43.723600 0
M  V30 5 H 76.166800 55.645800 43.809500 0
M  V30 6 H 76.298500 55.832800 42.049200 0
M  V30 7 H 75.723400 57.140500 43.061900 0
M  V30 8 R 74.000600 54.180500 42.102100 0
M  V30 END ATOM
M  V30 BEGIN BOND
M  V30 1 1 2 1
M  V30 2 1 3 1
M  V30 3 1 1 4 CFG=1
M  V30 4 1 5 2
M  V30 5 1 6 2
M  V30 6 1 7 2
M  V30 7 1 8 1
M  V30 END BOND
M  V30 END CTAB
M  END
$$$$
R-group 761 (29306-5)
     RDKit          3D

  0  0  0  0  0  0  0  0  0  0999 V3000
M  V30 BEGIN CTAB
M  V30 COUNTS 23 23 0 0 1
M  V30 BEGIN ATOM
M  V30 1 C 73.556500 54.550900 41.358600 0 CFG=2
M  V30 2 C 74.955700 54.983300 40.828400 0
M  V30 3 C 75.055900 56.494300 40.553400 0 CFG=1
M  V30 4 C 74.257500 56.889700 39.297600 0
M  V30 5 C 74.651400 57.242700 41.838600 0 CFG=2
M  V30 6 O 75.590600 56.858100 42.846900 0
M  V30 7 C 73.263100 56.858000 42.259700 0 CFG=2
M  V30 8 O 72.879800 57.658100 43.330700 0
M  V30 9 C 73.181300 55.375800 42.584500 0
M  V30 10 H 72.817600 54.791900 40.596300 0
M  V30 11 H 75.693700 54.715900 41.578200 0
M  V30 12 H 75.270500 54.460900 39.936100 0
M  V30 13 H 76.098900 56.733300 40.345000 0
M  V30 14 H 73.214900 56.583700 39.335800 0
M  V30 15 H 74.258100 57.961000 39.140000 0
M  V30 16 H 74.688600 56.449500 38.399900 0
M  V30 17 H 74.474300 58.309800 41.724900 0
M  V30 18 H 72.600100 57.137400 41.439200 0
M  V30 19 H 72.182800 55.106500 42.924600 0
M  V30 20 H 73.861500 55.153000 43.402200 0
M  V30 21 H 75.470900 57.440100 43.587000 0
M  V30 22 H 72.264400 57.174700 43.861800 0
M  V30 23 R 73.402900 53.057900 41.689500 0
M  V30 END ATOM
M  V30 BEGIN BOND
M  V30 1 1 2 1
M  V30 2 1 3 2
M  V30 3 1 4 3
M  V30 4 1 5 3
M  V30 5 1 6 5
M  V30 6 1 7 5
M  V30 7 1 8 7
M  V30 8 1 9 1
M  V30 9 1 9 7
M  V30 10 1 1 10 CFG=3
M  V30 11 1 11 2
M  V30 12 1 12 2
M  V30 13 1 3 13 CFG=3
M  V30 14 1 14 4
M  V30 15 1 15 4
M  V30 16 1 16 4
M  V30 17 1 5 17 CFG=3
M  V30 18 1 7 18 CFG=3
M  V30 19 1 19 9
M  V30 20 1 20 9
M  V30 21 1 21 6
M  V30 22 1 22 8
M  V30 23 1 23 1
M  V30 END BOND
M  V30 END CTAB
M  END
$$$$
R-group 762 (2806-1)
     RDKit          3D

  0  0  0  0  0  0  0  0  0  0999 V3000
M  V30 BEGIN CTAB
M  V30 COUNTS 14 15 0 0 1
M  V30 BEGIN ATOM
M  V30 1 C 74.141700 54.974800 41.895800 0 CFG=1
M  V30 2 C 73.288000 55.951600 41.140800 0 CFG=2
M  V30 3 C 73.698600 57.330500 40.763200 0
M  V30 4 O 73.272500 58.058100 41.902400 0
M  V30 5 C 73.590300 57.323000 43.069100 0
M  V30 6 C 73.258200 55.926200 42.645700 0 CFG=2
M  V30 7 H 75.212400 55.177400 41.880500 0
M  V30 8 H 72.472200 55.558400 40.546000 0
M  V30 9 H 73.208000 57.665200 39.847900 0
M  V30 10 H 74.781300 57.362700 40.640900 0
M  V30 11 H 72.975100 57.640000 43.912200 0
M  V30 12 H 74.648200 57.410900 43.322100 0
M  V30 13 H 72.388200 55.505600 43.139100 0
M  V30 14 R 73.748200 53.509800 41.883900 0
M  V30 END ATOM
M  V30 BEGIN BOND
M  V30 1 1 2 1
M  V30 2 1 3 2
M  V30 3 1 4 3
M  V30 4 1 5 4
M  V30 5 1 6 1
M  V30 6 1 6 2
M  V30 7 1 6 5
M  V30 8 1 1 7 CFG=1
M  V30 9 1 2 8 CFG=3
M  V30 10 1 9 3
M  V30 11 1 10 3
M  V30 12 1 11 5
M  V30 13 1 12 5
M  V30 14 1 6 13 CFG=3
M  V30 15 1 14 1
M  V30 END BOND
M  V30 END CTAB
M  END
$$$$
R-group 763 (20061-2)
     RDKit          3D

  0  0  0  0  0  0  0  0  0  0999 V3000
M  V30 BEGIN CTAB
M  V30 COUNTS 15 15 0 0 1
M  V30 BEGIN ATOM
M  V30 1 C 73.736600 55.105000 41.803600 0 CFG=1
M  V30 2 C 73.790100 55.884300 43.134700 0
M  V30 3 C 74.776600 57.041200 42.931000 0
M  V30 4 C 75.190900 56.981600 41.470200 0 CFG=1
M  V30 5 F 76.472400 57.261800 41.313800 0
M  V30 6 C 74.953200 55.566800 41.016700 0
M  V30 7 H 72.874300 55.509200 41.269400 0
M  V30 8 H 72.802200 56.245400 43.414700 0
M  V30 9 H 74.139700 55.275200 43.963400 0
M  V30 10 H 75.655000 56.898700 43.565900 0
M  V30 11 H 74.340700 58.005900 43.189800 0
M  V30 12 H 74.583700 57.656900 40.872600 0
M  V30 13 H 75.818600 54.949200 41.253300 0
M  V30 14 H 74.790500 55.557500 39.940400 0
M  V30 15 R 73.554200 53.565100 41.880200 0
M  V30 END ATOM
M  V30 BEGIN BOND
M  V30 1 1 2 1
M  V30 2 1 3 2
M  V30 3 1 4 3
M  V30 4 1 5 4
M  V30 5 1 6 1
M  V30 6 1 6 4
M  V30 7 1 1 7 CFG=3
M  V30 8 1 8 2
M  V30 9 1 9 2
M  V30 10 1 10 3
M  V30 11 1 11 3
M  V30 12 1 4 12 CFG=3
M  V30 13 1 13 6
M  V30 14 1 14 6
M  V30 15 1 15 1
M  V30 END BOND
M  V30 END CTAB
M  END
$$$$
R-group 764 (16249-4)
     RDKit          3D

  0  0  0  0  0  0  0  0  0  0999 V3000
M  V30 BEGIN CTAB
M  V30 COUNTS 16 16 0 0 1
M  V30 BEGIN ATOM
M  V30 1 C 76.288500 57.337400 40.664400 0
M  V30 2 C 76.290900 56.874800 42.098800 0
M  V30 3 O 75.468500 55.752500 42.315700 0
M  V30 4 C 74.180500 56.062600 42.760900 0 CFG=1
M  V30 5 C 73.272300 56.424300 41.647900 0
M  V30 6 C 73.160400 55.044300 42.338800 0 CFG=1
M  V30 7 H 77.028800 58.113900 40.481200 0
M  V30 8 H 76.597400 56.460500 40.124900 0
M  V30 9 H 75.325300 57.657200 40.294500 0
M  V30 10 H 76.202000 57.657800 42.853500 0
M  V30 11 H 77.272200 56.459600 42.124700 0
M  V30 12 H 74.071600 56.546300 43.718300 0
M  V30 13 H 73.630700 56.453800 40.627400 0
M  V30 14 H 72.612200 57.257400 41.900800 0
M  V30 15 H 72.255600 54.944000 42.925000 0
M  V30 16 R 73.537100 53.719800 41.661400 0
M  V30 END ATOM
M  V30 BEGIN BOND
M  V30 1 1 2 1
M  V30 2 1 3 2
M  V30 3 1 4 3
M  V30 4 1 5 4
M  V30 5 1 6 4
M  V30 6 1 6 5
M  V30 7 1 7 1
M  V30 8 1 8 1
M  V30 9 1 9 1
M  V30 10 1 10 2
M  V30 11 1 11 2
M  V30 12 1 4 12 CFG=1
M  V30 13 1 13 5
M  V30 14 1 14 5
M  V30 15 1 6 15 CFG=1
M  V30 16 1 16 6
M  V30 END BOND
M  V30 END CTAB
M  END
$$$$
R-group 765 (10910-1)
     RDKit          3D

  0  0  0  0  0  0  0  0  0  0999 V3000
M  V30 BEGIN CTAB
M  V30 COUNTS 17 18 0 0 1
M  V30 BEGIN ATOM
M  V30 1 C 72.607000 54.116100 42.007600 0
M  V30 2 C 73.601700 55.249500 41.890500 0 CFG=1
M  V30 3 C 74.902900 55.101300 41.127700 0 CFG=2
M  V30 4 C 76.073600 55.985400 41.389400 0
M  V30 5 O 75.494100 57.249300 41.324800 0
M  V30 6 C 74.409800 57.260500 40.397200 0
M  V30 7 C 73.816000 55.913500 40.548700 0 CFG=2
M  V30 8 H 72.188100 54.105400 42.995900 0
M  V30 9 H 71.755800 54.331700 41.365300 0
M  V30 10 H 73.605300 55.916600 42.750000 0
M  V30 11 H 75.149700 54.212200 40.584400 0
M  V30 12 H 76.828500 55.855300 40.606800 0
M  V30 13 H 76.472100 55.818500 42.386600 0
M  V30 14 H 74.770800 57.387600 39.376100 0
M  V30 15 H 73.670800 58.030000 40.631500 0
M  V30 16 H 73.247600 55.548700 39.693200 0
M  V30 17 R 73.167200 52.729100 41.664800 0
M  V30 END ATOM
M  V30 BEGIN BOND
M  V30 1 1 2 1
M  V30 2 1 3 2
M  V30 3 1 4 3
M  V30 4 1 5 4
M  V30 5 1 6 5
M  V30 6 1 7 2
M  V30 7 1 7 3
M  V30 8 1 7 6
M  V30 9 1 8 1
M  V30 10 1 9 1
M  V30 11 1 2 10 CFG=1
M  V30 12 1 3 11 CFG=3
M  V30 13 1 12 4
M  V30 14 1 13 4
M  V30 15 1 14 6
M  V30 16 1 15 6
M  V30 17 1 7 16 CFG=3
M  V30 18 1 17 1
M  V30 END BOND
M  V30 END CTAB
M  END
$$$$
R-group 766 (11002-1)
     RDKit          3D

  0  0  0  0  0  0  0  0  0  0999 V3000
M  V30 BEGIN CTAB
M  V30 COUNTS 15 15 0 0 1
M  V30 BEGIN ATOM
M  V30 1 C 73.464700 54.724700 42.762300 0
M  V30 2 C 74.100500 55.625100 41.802200 0
M  V30 3 C 73.673300 56.126000 40.539200 0
M  V30 4 N 74.606900 56.857800 39.967700 0
M  V30 5 N 75.624900 56.863100 40.870300 0
M  V30 6 C 76.767000 57.712200 40.681000 0
M  V30 7 C 75.332500 56.176900 41.996400 0
M  V30 8 H 72.445300 55.075500 42.926300 0
M  V30 9 H 74.015800 54.828300 43.710700 0
M  V30 10 H 72.743400 55.980400 39.980200 0
M  V30 11 H 77.072500 58.035900 41.687300 0
M  V30 12 H 77.590900 57.258000 40.191900 0
M  V30 13 H 76.471200 58.581200 40.099000 0
M  V30 14 H 76.001400 56.117800 42.831000 0
M  V30 15 R 73.413700 53.260800 42.275600 0
M  V30 END ATOM
M  V30 BEGIN BOND
M  V30 1 1 2 1
M  V30 2 1 3 2
M  V30 3 2 4 3
M  V30 4 1 5 4
M  V30 5 1 6 5
M  V30 6 2 7 2
M  V30 7 1 7 5
M  V30 8 1 8 1
M  V30 9 1 9 1
M  V30 10 1 10 3
M  V30 11 1 11 6
M  V30 12 1 12 6
M  V30 13 1 13 6
M  V30 14 1 14 7
M  V30 15 1 15 1
M  V30 END BOND
M  V30 END CTAB
M  END
$$$$
R-group 767 (1346-1)
     RDKit          3D

  0  0  0  0  0  0  0  0  0  0999 V3000
M  V30 BEGIN CTAB
M  V30 COUNTS 13 12 0 0 1
M  V30 BEGIN ATOM
M  V30 1 C 74.302600 55.155100 42.157500 0
M  V30 2 O 75.272200 55.455000 41.463500 0
M  V30 3 N 73.672400 56.058000 42.922200 0
M  V30 4 C 73.940800 57.484900 42.864700 0
M  V30 5 C 73.103200 58.148600 41.780300 0
M  V30 6 C 73.198500 57.445900 40.491100 0
M  V30 7 N 73.272100 56.857700 39.498400 0
M  V30 8 H 75.008400 57.657800 42.726200 0
M  V30 9 H 73.655100 57.948100 43.796600 0
M  V30 10 H 73.314000 59.212100 41.724800 0
M  V30 11 H 72.072300 58.097300 42.087700 0
M  V30 12 H 72.953100 55.723700 43.559500 0
M  V30 13 R 73.762300 53.715200 42.183400 0
M  V30 END ATOM
M  V30 BEGIN BOND
M  V30 1 2 2 1
M  V30 2 1 3 1
M  V30 3 1 4 3
M  V30 4 1 5 4
M  V30 5 1 6 5
M  V30 6 3 7 6
M  V30 7 1 8 4
M  V30 8 1 9 4
M  V30 9 1 10 5
M  V30 10 1 11 5
M  V30 11 1 12 3
M  V30 12 1 13 1
M  V30 END BOND
M  V30 END CTAB
M  END
$$$$
R-group 768 (13581-3)
     RDKit          3D

  0  0  0  0  0  0  0  0  0  0999 V3000
M  V30 BEGIN CTAB
M  V30 COUNTS 16 15 0 0 1
M  V30 BEGIN ATOM
M  V30 1 O 73.676600 55.009600 42.128100 0
M  V30 2 C 74.909700 55.630400 41.778500 0 CFG=2
M  V30 3 C 75.626100 56.049300 43.065600 0
M  V30 4 C 74.573400 56.858500 40.916700 0 CFG=2
M  V30 5 C 73.545600 57.804300 41.549300 0
M  V30 6 O 74.072100 56.425300 39.677600 0
M  V30 7 H 75.585500 54.974500 41.235800 0
M  V30 8 H 76.472400 56.686000 42.834900 0
M  V30 9 H 74.975600 56.635000 43.699200 0
M  V30 10 H 75.967100 55.203300 43.658300 0
M  V30 11 H 75.496200 57.405000 40.715100 0
M  V30 12 H 73.943500 58.292300 42.439000 0
M  V30 13 H 73.262800 58.580100 40.841900 0
M  V30 14 H 72.642000 57.276400 41.840400 0
M  V30 15 H 73.312300 55.888600 39.851300 0
M  V30 16 R 73.496100 53.616700 41.882000 0
M  V30 END ATOM
M  V30 BEGIN BOND
M  V30 1 1 2 1
M  V30 2 1 3 2
M  V30 3 1 4 2
M  V30 4 1 5 4
M  V30 5 1 6 4
M  V30 6 1 2 7 CFG=3
M  V30 7 1 8 3
M  V30 8 1 9 3
M  V30 9 1 10 3
M  V30 10 1 4 11 CFG=3
M  V30 11 1 12 5
M  V30 12 1 13 5
M  V30 13 1 14 5
M  V30 14 1 15 6
M  V30 15 1 16 1
M  V30 END BOND
M  V30 END CTAB
M  END
$$$$
R-group 769 (43127-2)
     RDKit          3D

  0  0  0  0  0  0  0  0  0  0999 V3000
M  V30 BEGIN CTAB
M  V30 COUNTS 12 11 0 0 1
M  V30 BEGIN ATOM
M  V30 1 C 74.135100 55.407200 41.879400 0 CFG=1
M  V30 2 C 73.564200 56.059900 43.152900 0
M  V30 3 O 73.672200 56.159500 40.776500 0
M  V30 4 C 75.648700 55.650500 41.854500 0
M  V30 5 F 75.962400 56.939000 41.875000 0
M  V30 6 H 74.064900 55.656800 44.032600 0
M  V30 7 H 73.726500 57.137700 43.160300 0
M  V30 8 H 72.493300 55.891600 43.275800 0
M  V30 9 H 76.072200 55.258000 42.767100 0
M  V30 10 H 76.132200 55.258000 40.968100 0
M  V30 11 H 74.062500 55.812900 39.987800 0
M  V30 12 R 73.689400 53.887700 41.763900 0
M  V30 END ATOM
M  V30 BEGIN BOND
M  V30 1 1 2 1
M  V30 2 1 3 1
M  V30 3 1 4 1
M  V30 4 1 5 4
M  V30 5 1 6 2
M  V30 6 1 7 2
M  V30 7 1 8 2
M  V30 8 1 9 4
M  V30 9 1 10 4
M  V30 10 1 11 3
M  V30 11 1 1 12 CFG=3
M  V30 END BOND
M  V30 END CTAB
M  END
$$$$
R-group 770 (4950-1)
     RDKit          3D

  0  0  0  0  0  0  0  0  0  0999 V3000
M  V30 BEGIN CTAB
M  V30 COUNTS 15 15 0 0 1
M  V30 BEGIN ATOM
M  V30 1 C 73.644500 55.017100 42.294400 0
M  V30 2 C 75.038300 55.612800 42.039900 0
M  V30 3 C 74.976100 56.911600 41.268900 0
M  V30 4 C 76.107100 57.254100 40.337300 0
M  V30 5 C 74.739400 56.926600 39.774400 0
M  V30 6 H 72.914100 55.519000 41.664000 0
M  V30 7 H 73.359100 55.262100 43.316600 0
M  V30 8 H 75.547700 55.789000 42.987900 0
M  V30 9 H 75.672100 54.918600 41.494000 0
M  V30 10 H 74.507100 57.727300 41.815300 0
M  V30 11 H 76.472300 58.279500 40.321000 0
M  V30 12 H 76.872300 56.501100 40.180900 0
M  V30 13 H 74.606600 55.968800 39.281100 0
M  V30 14 H 74.147500 57.734400 39.348100 0
M  V30 15 R 73.510100 53.495000 42.064100 0
M  V30 END ATOM
M  V30 BEGIN BOND
M  V30 1 1 2 1
M  V30 2 1 3 2
M  V30 3 1 4 3
M  V30 4 1 5 3
M  V30 5 1 5 4
M  V30 6 1 6 1
M  V30 7 1 7 1
M  V30 8 1 8 2
M  V30 9 1 9 2
M  V30 10 1 10 3
M  V30 11 1 11 4
M  V30 12 1 12 4
M  V30 13 1 13 5
M  V30 14 1 14 5
M  V30 15 1 15 1
M  V30 END BOND
M  V30 END CTAB
M  END
$$$$
R-group 771 (3553-1)
     RDKit          3D

  0  0  0  0  0  0  0  0  0  0999 V3000
M  V30 BEGIN CTAB
M  V30 COUNTS 13 12 0 0 1
M  V30 BEGIN ATOM
M  V30 1 N 74.021100 55.375400 41.924800 0
M  V30 2 C 75.435900 55.712800 41.762700 0
M  V30 3 C 73.493800 55.999600 43.142100 0
M  V30 4 C 73.482700 57.537600 43.053000 0
M  V30 5 F 72.862700 57.959100 41.951800 0
M  V30 6 F 72.871900 58.049900 44.116300 0
M  V30 7 H 75.898100 55.184100 40.934000 0
M  V30 8 H 75.556300 56.775200 41.551500 0
M  V30 9 H 76.003500 55.493200 42.665700 0
M  V30 10 H 72.469500 55.669300 43.317500 0
M  V30 11 H 74.072300 55.658100 44.002600 0
M  V30 12 H 74.478500 57.966400 43.053400 0
M  V30 13 R 73.684100 53.937500 41.851600 0
M  V30 END ATOM
M  V30 BEGIN BOND
M  V30 1 1 2 1
M  V30 2 1 3 1
M  V30 3 1 4 3
M  V30 4 1 5 4
M  V30 5 1 6 4
M  V30 6 1 7 2
M  V30 7 1 8 2
M  V30 8 1 9 2
M  V30 9 1 10 3
M  V30 10 1 11 3
M  V30 11 1 12 4
M  V30 12 1 13 1
M  V30 END BOND
M  V30 END CTAB
M  END
$$$$
R-group 772 (17698-2)
     RDKit          3D

  0  0  0  0  0  0  0  0  0  0999 V3000
M  V30 BEGIN CTAB
M  V30 COUNTS 16 15 0 0 1
M  V30 BEGIN ATOM
M  V30 1 C 73.926500 57.258100 40.212900 0
M  V30 2 C 73.548000 57.749300 41.626200 0
M  V30 3 C 74.249900 57.031600 42.796600 0 CFG=2
M  V30 4 O 75.647900 56.858000 42.627700 0
M  V30 5 C 73.669600 55.657600 43.104700 0
M  V30 6 O 73.869600 54.842400 41.965700 0
M  V30 7 H 73.495600 57.907500 39.450500 0
M  V30 8 H 75.005700 57.253900 40.062900 0
M  V30 9 H 73.557500 56.253100 40.013700 0
M  V30 10 H 72.472200 57.657800 41.747900 0
M  V30 11 H 73.709000 58.819700 41.724700 0
M  V30 12 H 74.106800 57.657400 43.681100 0
M  V30 13 H 72.604100 55.733400 43.323900 0
M  V30 14 H 74.153600 55.258200 43.989600 0
M  V30 15 H 76.071400 57.700200 42.685700 0
M  V30 16 R 73.574500 53.467900 42.106600 0
M  V30 END ATOM
M  V30 BEGIN BOND
M  V30 1 1 2 1
M  V30 2 1 3 2
M  V30 3 1 4 3
M  V30 4 1 5 3
M  V30 5 1 6 5
M  V30 6 1 7 1
M  V30 7 1 8 1
M  V30 8 1 9 1
M  V30 9 1 10 2
M  V30 10 1 11 2
M  V30 11 1 3 12 CFG=1
M  V30 12 1 13 5
M  V30 13 1 14 5
M  V30 14 1 15 4
M  V30 15 1 16 6
M  V30 END BOND
M  V30 END CTAB
M  END
$$$$
R-group 773 (8037-1)
     RDKit          3D

  0  0  0  0  0  0  0  0  0  0999 V3000
M  V30 BEGIN CTAB
M  V30 COUNTS 18 18 0 0 1
M  V30 BEGIN ATOM
M  V30 1 C 73.117700 54.377500 42.266600 0
M  V30 2 C 74.085200 55.458100 41.913600 0
M  V30 3 C 74.169000 56.219600 40.781900 0
M  V30 4 C 73.232600 56.331200 39.613500 0
M  V30 5 C 75.429000 56.858000 40.930900 0
M  V30 6 N 75.958300 56.694500 42.115500 0
M  V30 7 N 75.151100 55.815500 42.733200 0
M  V30 8 C 75.506200 55.438900 44.085600 0
M  V30 9 H 72.108900 54.560300 41.931100 0
M  V30 10 H 73.094000 54.286100 43.324700 0
M  V30 11 H 72.968500 57.374300 39.415400 0
M  V30 12 H 73.672900 55.937700 38.692600 0
M  V30 13 H 72.290400 55.794300 39.786900 0
M  V30 14 H 75.926200 57.517500 40.236100 0
M  V30 15 H 74.614700 55.257600 44.678600 0
M  V30 16 H 76.142000 54.556300 44.124100 0
M  V30 17 H 76.072900 56.248900 44.523800 0
M  V30 18 R 73.476000 53.002300 41.742500 0
M  V30 END ATOM
M  V30 BEGIN BOND
M  V30 1 1 2 1
M  V30 2 2 3 2
M  V30 3 1 4 3
M  V30 4 1 5 3
M  V30 5 2 6 5
M  V30 6 1 7 2
M  V30 7 1 7 6
M  V30 8 1 8 7
M  V30 9 1 9 1
M  V30 10 1 10 1
M  V30 11 1 11 4
M  V30 12 1 12 4
M  V30 13 1 13 4
M  V30 14 1 14 5
M  V30 15 1 15 8
M  V30 16 1 16 8
M  V30 17 1 17 8
M  V30 18 1 18 1
M  V30 END BOND
M  V30 END CTAB
M  END
$$$$
R-group 774 (4954-1)
     RDKit          3D

  0  0  0  0  0  0  0  0  0  0999 V3000
M  V30 BEGIN CTAB
M  V30 COUNTS 20 19 0 0 1
M  V30 BEGIN ATOM
M  V30 1 C 74.085600 57.118400 39.529300 0
M  V30 2 C 73.468500 57.561900 40.855300 0
M  V30 3 C 74.316800 57.183300 42.084200 0
M  V30 4 C 74.631800 55.685400 42.316600 0 CFG=1
M  V30 5 C 75.286400 55.547400 43.703600 0
M  V30 6 C 73.387100 54.783000 42.145300 0
M  V30 7 H 73.388900 57.257600 38.709700 0
M  V30 8 H 74.348300 56.069800 39.525800 0
M  V30 9 H 75.002100 57.658000 39.324900 0
M  V30 10 H 73.272300 58.630200 40.840000 0
M  V30 11 H 72.471000 57.158000 40.927900 0
M  V30 12 H 75.286700 57.657900 41.993000 0
M  V30 13 H 73.832200 57.600100 42.965900 0
M  V30 14 H 75.365600 55.390600 41.567800 0
M  V30 15 H 74.557800 55.258000 44.462400 0
M  V30 16 H 76.071700 54.799300 43.725100 0
M  V30 17 H 75.757400 56.478200 44.015400 0
M  V30 18 H 72.678100 54.899800 42.952000 0
M  V30 19 H 72.856400 55.182100 41.299700 0
M  V30 20 R 73.572400 53.306300 41.753200 0
M  V30 END ATOM
M  V30 BEGIN BOND
M  V30 1 1 2 1
M  V30 2 1 3 2
M  V30 3 1 4 3
M  V30 4 1 5 4
M  V30 5 1 6 4
M  V30 6 1 7 1
M  V30 7 1 8 1
M  V30 8 1 9 1
M  V30 9 1 10 2
M  V30 10 1 11 2
M  V30 11 1 12 3
M  V30 12 1 13 3
M  V30 13 1 4 14 CFG=3
M  V30 14 1 15 5
M  V30 15 1 16 5
M  V30 16 1 17 5
M  V30 17 1 18 6
M  V30 18 1 19 6
M  V30 19 1 20 6
M  V30 END BOND
M  V30 END CTAB
M  END
$$$$
R-group 775 (2560-1)
     RDKit          3D

  0  0  0  0  0  0  0  0  0  0999 V3000
M  V30 BEGIN CTAB
M  V30 COUNTS 17 17 0 0 1
M  V30 BEGIN ATOM
M  V30 1 C 73.222400 54.626200 42.170700 0
M  V30 2 C 74.567100 55.228100 42.554100 0
M  V30 3 N 74.559100 56.675800 42.524800 0
M  V30 4 C 74.543900 57.258800 41.194900 0
M  V30 5 C 76.072700 57.245700 41.225500 0
M  V30 6 F 76.620100 58.387700 40.833900 0
M  V30 7 F 76.551100 56.210300 40.531000 0
M  V30 8 C 75.936500 57.099400 42.750300 0
M  V30 9 H 72.871700 55.110300 41.264100 0
M  V30 10 H 72.475900 54.862700 42.924500 0
M  V30 11 H 74.805500 54.941100 43.578200 0
M  V30 12 H 75.352100 54.825800 41.916200 0
M  V30 13 H 74.062400 56.636000 40.442200 0
M  V30 14 H 74.071000 58.232600 41.324500 0
M  V30 15 H 75.956300 58.026900 43.324800 0
M  V30 16 H 76.478300 56.304500 43.247000 0
M  V30 17 R 73.288900 53.106800 41.941200 0
M  V30 END ATOM
M  V30 BEGIN BOND
M  V30 1 1 2 1
M  V30 2 1 3 2
M  V30 3 1 4 3
M  V30 4 1 5 4
M  V30 5 1 6 5
M  V30 6 1 7 5
M  V30 7 1 8 3
M  V30 8 1 8 5
M  V30 9 1 9 1
M  V30 10 1 10 1
M  V30 11 1 11 2
M  V30 12 1 12 2
M  V30 13 1 13 4
M  V30 14 1 14 4
M  V30 15 1 15 8
M  V30 16 1 16 8
M  V30 17 1 17 1
M  V30 END BOND
M  V30 END CTAB
M  END
$$$$
R-group 776 (1138-1)
     RDKit          3D

  0  0  0  0  0  0  0  0  0  0999 V3000
M  V30 BEGIN CTAB
M  V30 COUNTS 12 11 0 0 1
M  V30 BEGIN ATOM
M  V30 1 C 74.071700 54.992100 41.572100 0
M  V30 2 O 73.701800 55.676000 40.616700 0
M  V30 3 N 74.870700 55.465400 42.529600 0
M  V30 4 C 75.210900 56.855300 42.694500 0
M  V30 5 C 73.961100 57.617100 43.124900 0
M  V30 6 F 73.272600 58.058200 42.076200 0
M  V30 7 H 75.970400 56.927500 43.471400 0
M  V30 8 H 75.641800 57.267800 41.781000 0
M  V30 9 H 73.281600 57.011300 43.726600 0
M  V30 10 H 74.272600 58.458000 43.714300 0
M  V30 11 H 75.139600 54.835000 43.272400 0
M  V30 12 R 73.615000 53.535300 41.742700 0
M  V30 END ATOM
M  V30 BEGIN BOND
M  V30 1 2 2 1
M  V30 2 1 3 1
M  V30 3 1 4 3
M  V30 4 1 5 4
M  V30 5 1 6 5
M  V30 6 1 7 4
M  V30 7 1 8 4
M  V30 8 1 9 5
M  V30 9 1 10 5
M  V30 10 1 11 3
M  V30 11 1 12 1
M  V30 END BOND
M  V30 END CTAB
M  END
$$$$
R-group 777 (10275-16)
     RDKit          3D

  0  0  0  0  0  0  0  0  0  0999 V3000
M  V30 BEGIN CTAB
M  V30 COUNTS 18 19 0 0 1
M  V30 BEGIN ATOM
M  V30 1 C 74.157100 55.134500 42.768100 0 CFG=1
M  V30 2 C 75.135700 55.779700 41.765000 0 CFG=2
M  V30 3 O 76.071900 56.525300 42.498300 0
M  V30 4 C 74.341300 56.820800 40.963700 0 CFG=1
M  V30 5 O 73.858500 56.340600 39.725900 0
M  V30 6 C 73.174900 57.202400 41.848200 0 CFG=2
M  V30 7 C 73.304200 57.580800 43.303600 0
M  V30 8 C 73.044800 56.143200 42.927100 0 CFG=2
M  V30 9 H 74.628800 55.102000 43.750100 0
M  V30 10 H 75.708000 55.078600 41.169000 0
M  V30 11 H 74.984900 57.657700 40.747100 0
M  V30 12 H 72.334500 57.659600 41.339900 0
M  V30 13 H 74.290400 57.925200 43.596200 0
M  V30 14 H 72.467400 58.060700 43.797600 0
M  V30 15 H 72.100900 55.767200 43.324800 0
M  V30 16 H 76.668100 56.940800 41.892800 0
M  V30 17 H 73.754500 57.076700 39.133600 0
M  V30 18 R 73.697300 53.682900 42.403700 0
M  V30 END ATOM
M  V30 BEGIN BOND
M  V30 1 1 2 1
M  V30 2 1 3 2
M  V30 3 1 4 2
M  V30 4 1 5 4
M  V30 5 1 6 4
M  V30 6 1 7 6
M  V30 7 1 8 1
M  V30 8 1 8 6
M  V30 9 1 8 7
M  V30 10 1 1 9 CFG=1
M  V30 11 1 2 10 CFG=3
M  V30 12 1 4 11 CFG=3
M  V30 13 1 6 12 CFG=3
M  V30 14 1 13 7
M  V30 15 1 14 7
M  V30 16 1 8 15 CFG=1
M  V30 17 1 16 3
M  V30 18 1 17 5
M  V30 19 1 18 1
M  V30 END BOND
M  V30 END CTAB
M  END
$$$$
R-group 778 (799-1)
     RDKit          3D

  0  0  0  0  0  0  0  0  0  0999 V3000
M  V30 BEGIN CTAB
M  V30 COUNTS 12 11 0 0 1
M  V30 BEGIN ATOM
M  V30 1 C 74.123500 55.391000 41.882100 0
M  V30 2 C 73.542600 56.054100 43.144200 0
M  V30 3 C 75.622200 55.664500 41.866200 0
M  V30 4 O 73.672200 56.150100 40.780900 0
M  V30 5 H 74.035700 55.657900 44.031000 0
M  V30 6 H 73.704900 57.132700 43.144800 0
M  V30 7 H 72.472300 55.882400 43.259100 0
M  V30 8 H 76.071300 55.258000 42.763700 0
M  V30 9 H 76.073200 55.238800 40.978700 0
M  V30 10 H 75.842900 56.733600 41.864800 0
M  V30 11 H 74.056500 55.794200 39.994900 0
M  V30 12 R 73.707500 53.865000 41.753400 0
M  V30 END ATOM
M  V30 BEGIN BOND
M  V30 1 1 2 1
M  V30 2 1 3 1
M  V30 3 1 4 1
M  V30 4 1 5 2
M  V30 5 1 6 2
M  V30 6 1 7 2
M  V30 7 1 8 3
M  V30 8 1 9 3
M  V30 9 1 10 3
M  V30 10 1 11 4
M  V30 11 1 12 1
M  V30 END BOND
M  V30 END CTAB
M  END
$$$$
R-group 779 (771-1)
     RDKit          3D

  0  0  0  0  0  0  0  0  0  0999 V3000
M  V30 BEGIN CTAB
M  V30 COUNTS 15 15 0 0 1
M  V30 BEGIN ATOM
M  V30 1 N 73.861600 55.018200 41.802000 0
M  V30 2 C 75.251700 55.387900 41.479800 0
M  V30 3 C 75.539800 56.875400 41.643600 0
M  V30 4 O 75.066200 57.256400 42.922700 0
M  V30 5 C 73.659100 57.142100 43.024200 0
M  V30 6 C 73.458600 55.642200 43.062100 0
M  V30 7 H 75.945900 54.862700 42.124800 0
M  V30 8 H 75.510900 55.119800 40.463300 0
M  V30 9 H 75.059300 57.457200 40.860700 0
M  V30 10 H 76.610800 57.064800 41.578200 0
M  V30 11 H 73.140000 57.608600 42.186900 0
M  V30 12 H 73.272500 57.605600 43.932500 0
M  V30 13 H 72.420900 55.431000 43.324400 0
M  V30 14 H 74.073400 55.257300 43.875900 0
M  V30 15 R 73.597400 53.571100 41.780000 0
M  V30 END ATOM
M  V30 BEGIN BOND
M  V30 1 1 2 1
M  V30 2 1 3 2
M  V30 3 1 4 3
M  V30 4 1 5 4
M  V30 5 1 6 1
M  V30 6 1 6 5
M  V30 7 1 7 2
M  V30 8 1 8 2
M  V30 9 1 9 3
M  V30 10 1 10 3
M  V30 11 1 11 5
M  V30 12 1 12 5
M  V30 13 1 13 6
M  V30 14 1 14 6
M  V30 15 1 15 1
M  V30 END BOND
M  V30 END CTAB
M  END
$$$$
R-group 780 (9083-1)
     RDKit          3D

  0  0  0  0  0  0  0  0  0  0999 V3000
M  V30 BEGIN CTAB
M  V30 COUNTS 12 11 0 0 1
M  V30 BEGIN ATOM
M  V30 1 O 73.714600 54.987400 42.152300 0
M  V30 2 C 74.828300 55.616500 41.540500 0
M  V30 3 C 74.949500 57.053300 42.032400 0
M  V30 4 F 75.483900 57.087100 43.253000 0
M  V30 5 F 75.802500 57.657900 41.209700 0
M  V30 6 C 73.596200 57.788300 42.036300 0
M  V30 7 F 72.911900 57.565900 40.912600 0
M  V30 8 F 72.872100 57.389100 43.079900 0
M  V30 9 H 75.756400 55.072500 41.712000 0
M  V30 10 H 74.654800 55.675200 40.467200 0
M  V30 11 H 73.678100 58.862700 42.124700 0
M  V30 12 R 73.501800 53.614800 41.858700 0
M  V30 END ATOM
M  V30 BEGIN BOND
M  V30 1 1 2 1
M  V30 2 1 3 2
M  V30 3 1 4 3
M  V30 4 1 5 3
M  V30 5 1 6 3
M  V30 6 1 7 6
M  V30 7 1 8 6
M  V30 8 1 9 2
M  V30 9 1 10 2
M  V30 10 1 11 6
M  V30 11 1 12 1
M  V30 END BOND
M  V30 END CTAB
M  END
$$$$
R-group 781 (7233-1)
     RDKit          3D

  0  0  0  0  0  0  0  0  0  0999 V3000
M  V30 BEGIN CTAB
M  V30 COUNTS 15 15 0 0 1
M  V30 BEGIN ATOM
M  V30 1 C 72.668000 58.864700 42.120000 0
M  V30 2 C 73.598700 58.032300 43.029500 0
M  V30 3 N 74.119300 56.876700 42.377900 0
M  V30 4 C 73.670300 55.652500 42.617000 0
M  V30 5 C 74.232500 54.793400 41.773300 0
M  V30 6 C 75.235000 55.592000 41.141600 0
M  V30 7 N 75.142600 56.857900 41.498500 0
M  V30 8 H 72.472300 59.884700 42.457800 0
M  V30 9 H 73.010100 58.857300 41.088600 0
M  V30 10 H 71.672200 58.457300 42.123100 0
M  V30 11 H 73.010600 57.718400 43.891100 0
M  V30 12 H 74.472900 58.462100 43.455300 0
M  V30 13 H 72.866200 55.498000 43.323300 0
M  V30 14 H 75.994600 55.319500 40.428300 0
M  V30 15 R 73.776800 53.382300 41.709900 0
M  V30 END ATOM
M  V30 BEGIN BOND
M  V30 1 1 2 1
M  V30 2 1 3 2
M  V30 3 1 4 3
M  V30 4 2 5 4
M  V30 5 1 6 5
M  V30 6 1 7 3
M  V30 7 2 7 6
M  V30 8 1 8 1
M  V30 9 1 9 1
M  V30 10 1 10 1
M  V30 11 1 11 2
M  V30 12 1 12 2
M  V30 13 1 13 4
M  V30 14 1 14 6
M  V30 15 1 15 5
M  V30 END BOND
M  V30 END CTAB
M  END
$$$$
R-group 782 (1874-1)
     RDKit          3D

  0  0  0  0  0  0  0  0  0  0999 V3000
M  V30 BEGIN CTAB
M  V30 COUNTS 12 11 0 0 1
M  V30 BEGIN ATOM
M  V30 1 C 73.992200 55.212000 42.703200 0
M  V30 2 C 75.290400 55.831700 42.143500 0
M  V30 3 C 75.045500 57.004100 41.184700 0
M  V30 4 C 74.063200 56.700600 40.139100 0
M  V30 5 N 73.283000 56.457800 39.324700 0
M  V30 6 H 74.072600 55.298000 43.784900 0
M  V30 7 H 73.131800 55.830600 42.454100 0
M  V30 8 H 75.905900 55.080100 41.659600 0
M  V30 9 H 75.899600 56.193700 42.972500 0
M  V30 10 H 75.975900 57.318700 40.711400 0
M  V30 11 H 74.646500 57.859100 41.727500 0
M  V30 12 R 73.690200 53.725900 42.355200 0
M  V30 END ATOM
M  V30 BEGIN BOND
M  V30 1 1 2 1
M  V30 2 1 3 2
M  V30 3 1 4 3
M  V30 4 3 5 4
M  V30 5 1 6 1
M  V30 6 1 7 1
M  V30 7 1 8 2
M  V30 8 1 9 2
M  V30 9 1 10 3
M  V30 10 1 11 3
M  V30 11 1 12 1
M  V30 END BOND
M  V30 END CTAB
M  END
$$$$
R-group 783 (10913-1)
     RDKit          3D

  0  0  0  0  0  0  0  0  0  0999 V3000
M  V30 BEGIN CTAB
M  V30 COUNTS 18 17 0 0 1
M  V30 BEGIN ATOM
M  V30 1 C 74.151300 56.895700 39.433100 0
M  V30 2 O 73.986400 57.257900 40.794700 0
M  V30 3 C 75.069700 57.002500 41.691000 0 CFG=2
M  V30 4 C 76.454300 57.424300 41.162600 0
M  V30 5 C 75.078700 55.527400 42.083400 0
M  V30 6 C 73.675200 54.956000 42.331700 0
M  V30 7 H 73.195100 57.008000 38.924100 0
M  V30 8 H 74.867200 57.546100 38.933600 0
M  V30 9 H 74.469600 55.863200 39.316900 0
M  V30 10 H 74.845900 57.581000 42.588600 0
M  V30 11 H 77.212700 57.315300 41.935300 0
M  V30 12 H 76.768800 56.816600 40.314900 0
M  V30 13 H 76.472300 58.458100 40.843300 0
M  V30 14 H 75.674200 55.397900 42.986300 0
M  V30 15 H 75.602300 54.968700 41.316800 0
M  V30 16 H 72.931100 55.409500 41.684700 0
M  V30 17 H 73.365300 55.257600 43.324700 0
M  V30 18 R 73.555700 53.439500 42.119100 0
M  V30 END ATOM
M  V30 BEGIN BOND
M  V30 1 1 2 1
M  V30 2 1 3 2
M  V30 3 1 4 3
M  V30 4 1 5 3
M  V30 5 1 6 5
M  V30 6 1 7 1
M  V30 7 1 8 1
M  V30 8 1 9 1
M  V30 9 1 3 10 CFG=1
M  V30 10 1 11 4
M  V30 11 1 12 4
M  V30 12 1 13 4
M  V30 13 1 14 5
M  V30 14 1 15 5
M  V30 15 1 16 6
M  V30 16 1 17 6
M  V30 17 1 18 6
M  V30 END BOND
M  V30 END CTAB
M  END
$$$$
R-group 784 (10092-6)
     RDKit          3D

  0  0  0  0  0  0  0  0  0  0999 V3000
M  V30 BEGIN CTAB
M  V30 COUNTS 17 17 0 0 1
M  V30 BEGIN ATOM
M  V30 1 C 73.470800 54.564400 41.304400 0 CFG=2
M  V30 2 C 74.741000 55.186700 40.711000 0
M  V30 3 C 74.701200 56.549900 41.346600 0 CFG=1
M  V30 4 O 73.672200 57.258100 40.691700 0
M  V30 5 C 74.217000 56.255800 42.761500 0 CFG=2
M  V30 6 C 75.274900 55.663200 43.705000 0
M  V30 7 O 73.273600 55.230000 42.524600 0
M  V30 8 H 72.621200 54.851900 40.683200 0
M  V30 9 H 75.648800 54.652200 40.994100 0
M  V30 10 H 74.717600 55.268700 39.625600 0
M  V30 11 H 75.647000 57.090200 41.302900 0
M  V30 12 H 73.741600 57.117800 43.229900 0
M  V30 13 H 76.045400 56.390200 43.968300 0
M  V30 14 H 74.827800 55.257900 44.615800 0
M  V30 15 H 75.755600 54.825200 43.232300 0
M  V30 16 H 72.855400 56.824500 40.886200 0
M  V30 17 R 73.397300 53.055200 41.560100 0
M  V30 END ATOM
M  V30 BEGIN BOND
M  V30 1 1 2 1
M  V30 2 1 3 2
M  V30 3 1 4 3
M  V30 4 1 5 3
M  V30 5 1 6 5
M  V30 6 1 7 1
M  V30 7 1 7 5
M  V30 8 1 1 8 CFG=3
M  V30 9 1 9 2
M  V30 10 1 10 2
M  V30 11 1 3 11 CFG=1
M  V30 12 1 5 12 CFG=1
M  V30 13 1 13 6
M  V30 14 1 14 6
M  V30 15 1 15 6
M  V30 16 1 16 4
M  V30 17 1 17 1
M  V30 END BOND
M  V30 END CTAB
M  END
$$$$
R-group 785 (7190-1)
     RDKit          3D

  0  0  0  0  0  0  0  0  0  0999 V3000
M  V30 BEGIN CTAB
M  V30 COUNTS 14 14 0 0 1
M  V30 BEGIN ATOM
M  V30 1 O 72.668400 54.056400 42.207600 0
M  V30 2 C 73.468200 55.153000 42.636000 0
M  V30 3 C 74.003600 55.961500 41.482900 0 CFG=1
M  V30 4 C 74.689600 57.262800 41.791800 0
M  V30 5 C 75.682000 56.812600 40.733400 0
M  V30 6 O 75.246100 55.451000 40.925000 0
M  V30 7 H 72.800900 55.785200 43.224600 0
M  V30 8 H 74.266300 54.890000 43.323300 0
M  V30 9 H 73.252100 56.112900 40.701300 0
M  V30 10 H 74.061900 58.107300 41.535500 0
M  V30 11 H 75.111400 57.308400 42.801600 0
M  V30 12 H 75.436000 57.175400 39.727800 0
M  V30 13 H 76.730200 56.975800 40.993000 0
M  V30 14 R 73.298700 52.933000 41.632300 0
M  V30 END ATOM
M  V30 BEGIN BOND
M  V30 1 1 2 1
M  V30 2 1 3 2
M  V30 3 1 4 3
M  V30 4 1 5 4
M  V30 5 1 6 3
M  V30 6 1 6 5
M  V30 7 1 7 2
M  V30 8 1 8 2
M  V30 9 1 3 9 CFG=3
M  V30 10 1 10 4
M  V30 11 1 11 4
M  V30 12 1 12 5
M  V30 13 1 13 5
M  V30 14 1 14 1
M  V30 END BOND
M  V30 END CTAB
M  END
$$$$
R-group 786 (11015-2)
     RDKit          3D

  0  0  0  0  0  0  0  0  0  0999 V3000
M  V30 BEGIN CTAB
M  V30 COUNTS 12 11 0 0 1
M  V30 BEGIN ATOM
M  V30 1 C 73.811100 55.155800 42.549200 0
M  V30 2 C 74.885300 55.877500 41.710400 0 CFG=2
M  V30 3 O 75.502300 56.857700 42.515200 0
M  V30 4 C 74.306200 56.580400 40.464900 0
M  V30 5 F 73.413100 57.516200 40.792600 0
M  V30 6 F 75.273100 57.117400 39.725200 0
M  V30 7 H 72.872700 55.697000 42.475800 0
M  V30 8 H 74.072400 55.258200 43.603200 0
M  V30 9 H 75.672300 55.179600 41.428600 0
M  V30 10 H 73.786600 55.885200 39.810100 0
M  V30 11 H 75.910600 56.435300 43.254400 0
M  V30 12 R 73.579400 53.648700 42.252400 0
M  V30 END ATOM
M  V30 BEGIN BOND
M  V30 1 1 2 1
M  V30 2 1 3 2
M  V30 3 1 4 2
M  V30 4 1 5 4
M  V30 5 1 6 4
M  V30 6 1 7 1
M  V30 7 1 8 1
M  V30 8 1 2 9 CFG=3
M  V30 9 1 10 4
M  V30 10 1 11 3
M  V30 11 1 12 1
M  V30 END BOND
M  V30 END CTAB
M  END
$$$$
R-group 787 (14294-1)
     RDKit          3D

  0  0  0  0  0  0  0  0  0  0999 V3000
M  V30 BEGIN CTAB
M  V30 COUNTS 17 17 0 0 1
M  V30 BEGIN ATOM
M  V30 1 C 75.566900 57.407400 43.526800 0
M  V30 2 C 74.167000 57.659200 42.979500 0
M  V30 3 C 73.893800 56.669300 41.963800 0
M  V30 4 N 73.800100 56.821000 40.657800 0
M  V30 5 C 73.670700 55.540400 40.187400 0
M  V30 6 C 73.557800 55.345000 38.703100 0
M  V30 7 C 73.668100 54.684900 41.273400 0
M  V30 8 O 73.819500 55.398600 42.407200 0
M  V30 9 H 75.677000 58.010100 44.421100 0
M  V30 10 H 75.674600 56.372200 43.849200 0
M  V30 11 H 76.358000 57.657800 42.818100 0
M  V30 12 H 74.050800 58.636300 42.520200 0
M  V30 13 H 73.403200 57.570800 43.750100 0
M  V30 14 H 74.461500 54.923300 38.287800 0
M  V30 15 H 72.725300 54.691500 38.464400 0
M  V30 16 H 73.451900 56.293400 38.137300 0
M  V30 17 R 73.509600 53.212600 41.536300 0
M  V30 END ATOM
M  V30 BEGIN BOND
M  V30 1 1 2 1
M  V30 2 1 3 2
M  V30 3 2 4 3
M  V30 4 1 5 4
M  V30 5 1 6 5
M  V30 6 2 7 5
M  V30 7 1 8 3
M  V30 8 1 8 7
M  V30 9 1 9 1
M  V30 10 1 10 1
M  V30 11 1 11 1
M  V30 12 1 12 2
M  V30 13 1 13 2
M  V30 14 1 14 6
M  V30 15 1 15 6
M  V30 16 1 16 6
M  V30 17 1 17 7
M  V30 END BOND
M  V30 END CTAB
M  END
$$$$
R-group 788 (40961-1)
     RDKit          3D

  0  0  0  0  0  0  0  0  0  0999 V3000
M  V30 BEGIN CTAB
M  V30 COUNTS 14 14 0 0 1
M  V30 BEGIN ATOM
M  V30 1 O 73.674200 54.705300 42.181800 0
M  V30 2 C 74.984400 55.237700 42.082800 0
M  V30 3 C 74.822600 56.645200 41.612100 0
M  V30 4 O 76.067700 57.255600 41.319700 0
M  V30 5 C 73.629100 57.179600 40.820700 0
M  V30 6 C 73.769800 57.484200 42.290700 0
M  V30 7 H 75.458100 55.233600 43.063900 0
M  V30 8 H 75.647600 54.713300 41.402700 0
M  V30 9 H 73.672400 58.056300 40.176500 0
M  V30 10 H 72.870300 56.456700 40.526100 0
M  V30 11 H 73.076500 56.990700 42.968800 0
M  V30 12 H 74.072100 58.459900 42.613400 0
M  V30 13 H 76.428000 56.855800 40.542300 0
M  V30 14 R 73.502600 53.325200 41.959000 0
M  V30 END ATOM
M  V30 BEGIN BOND
M  V30 1 1 2 1
M  V30 2 1 3 2
M  V30 3 1 4 3
M  V30 4 1 5 3
M  V30 5 1 6 3
M  V30 6 1 6 5
M  V30 7 1 7 2
M  V30 8 1 8 2
M  V30 9 1 9 5
M  V30 10 1 10 5
M  V30 11 1 11 6
M  V30 12 1 12 6
M  V30 13 1 13 4
M  V30 14 1 14 1
M  V30 END BOND
M  V30 END CTAB
M  END
$$$$
R-group 789 (902-1)
     RDKit          3D

  0  0  0  0  0  0  0  0  0  0999 V3000
M  V30 BEGIN CTAB
M  V30 COUNTS 11 10 0 0 1
M  V30 BEGIN ATOM
M  V30 1 C 73.053500 54.590100 42.041200 0
M  V30 2 S 74.358700 55.914900 42.143000 0
M  V30 3 C 75.233600 55.561000 43.720900 0
M  V30 4 O 75.317300 55.748600 41.043700 0
M  V30 5 O 73.672400 57.203600 42.312100 0
M  V30 6 H 72.375100 54.858000 41.244200 0
M  V30 7 H 72.440100 54.588200 42.924700 0
M  V30 8 H 75.785000 56.449700 44.023800 0
M  V30 9 H 74.511800 55.257900 44.481900 0
M  V30 10 H 75.947500 54.760400 43.595800 0
M  V30 11 R 73.485200 53.198500 41.598800 0
M  V30 END ATOM
M  V30 BEGIN BOND
M  V30 1 1 2 1
M  V30 2 1 3 2
M  V30 3 2 4 2
M  V30 4 2 5 2
M  V30 5 1 6 1
M  V30 6 1 7 1
M  V30 7 1 8 3
M  V30 8 1 9 3
M  V30 9 1 10 3
M  V30 10 1 11 1
M  V30 END BOND
M  V30 END CTAB
M  END
$$$$
R-group 790 (858-1)
     RDKit          3D

  0  0  0  0  0  0  0  0  0  0999 V3000
M  V30 BEGIN CTAB
M  V30 COUNTS 10 10 0 0 1
M  V30 BEGIN ATOM
M  V30 1 C 74.200100 55.185300 41.824000 0
M  V30 2 N 73.672200 56.062400 42.659000 0
M  V30 3 O 74.476900 57.189900 42.523700 0
M  V30 4 C 75.455500 56.830700 41.663800 0
M  V30 5 C 76.643200 57.717100 41.541200 0
M  V30 6 N 75.275900 55.633000 41.127200 0
M  V30 7 H 77.504300 57.258000 41.098100 0
M  V30 8 H 76.472200 58.577700 40.912100 0
M  V30 9 H 76.900800 58.057900 42.542200 0
M  V30 10 R 73.730200 53.759400 41.793900 0
M  V30 END ATOM
M  V30 BEGIN BOND
M  V30 1 2 2 1
M  V30 2 1 3 2
M  V30 3 1 4 3
M  V30 4 1 5 4
M  V30 5 1 6 1
M  V30 6 2 6 4
M  V30 7 1 7 5
M  V30 8 1 8 5
M  V30 9 1 9 5
M  V30 10 1 10 1
M  V30 END BOND
M  V30 END CTAB
M  END
$$$$
R-group 791 (1140-2)
     RDKit          3D

  0  0  0  0  0  0  0  0  0  0999 V3000
M  V30 BEGIN CTAB
M  V30 COUNTS 15 14 0 0 1
M  V30 BEGIN ATOM
M  V30 1 C 72.845400 58.266700 42.105400 0
M  V30 2 O 73.732100 57.510300 42.924000 0
M  V30 3 C 73.494600 56.108200 43.029400 0
M  V30 4 C 74.034200 55.351900 41.805500 0 CFG=1
M  V30 5 C 75.525300 55.722900 41.620400 0
M  V30 6 H 73.272000 59.253100 41.914600 0
M  V30 7 H 72.650100 57.799600 41.140500 0
M  V30 8 H 71.904300 58.458100 42.612300 0
M  V30 9 H 72.447700 55.910500 43.231600 0
M  V30 10 H 74.033300 55.705400 43.885900 0
M  V30 11 H 73.510500 55.750100 40.938100 0
M  V30 12 H 76.071600 55.643100 42.559800 0
M  V30 13 H 76.048800 55.133400 40.873000 0
M  V30 14 H 75.619200 56.762600 41.305900 0
M  V30 15 R 73.701400 53.821400 41.875200 0
M  V30 END ATOM
M  V30 BEGIN BOND
M  V30 1 1 2 1
M  V30 2 1 3 2
M  V30 3 1 4 3
M  V30 4 1 5 4
M  V30 5 1 6 1
M  V30 6 1 7 1
M  V30 7 1 8 1
M  V30 8 1 9 3
M  V30 9 1 10 3
M  V30 10 1 4 11 CFG=3
M  V30 11 1 12 5
M  V30 12 1 13 5
M  V30 13 1 14 5
M  V30 14 1 15 4
M  V30 END BOND
M  V30 END CTAB
M  END
$$$$
R-group 792 (8663-2)
     RDKit          3D

  0  0  0  0  0  0  0  0  0  0999 V3000
M  V30 BEGIN CTAB
M  V30 COUNTS 13 13 0 0 1
M  V30 BEGIN ATOM
M  V30 1 C 74.343400 55.105600 41.708300 0 CFG=1
M  V30 2 O 73.672600 55.994600 40.839400 0
M  V30 3 C 74.436300 55.807000 43.040200 0
M  V30 4 C 75.472600 55.402900 44.051100 0
M  V30 5 C 75.606100 56.721800 43.306700 0
M  V30 6 H 75.358900 54.998000 41.324800 0
M  V30 7 H 73.474400 56.103600 43.456100 0
M  V30 8 H 75.096300 55.258000 45.064600 0
M  V30 9 H 76.072400 54.580200 43.725900 0
M  V30 10 H 76.383600 56.778100 42.547000 0
M  V30 11 H 75.339400 57.681000 43.733300 0
M  V30 12 H 73.679000 55.625900 39.969900 0
M  V30 13 R 73.666200 53.703300 41.771900 0
M  V30 END ATOM
M  V30 BEGIN BOND
M  V30 1 1 2 1
M  V30 2 1 3 1
M  V30 3 1 4 3
M  V30 4 1 5 3
M  V30 5 1 5 4
M  V30 6 1 1 6 CFG=3
M  V30 7 1 7 3
M  V30 8 1 8 4
M  V30 9 1 9 4
M  V30 10 1 10 5
M  V30 11 1 11 5
M  V30 12 1 12 2
M  V30 13 1 13 1
M  V30 END BOND
M  V30 END CTAB
M  END
$$$$
R-group 793 (1887-2)
     RDKit          3D

  0  0  0  0  0  0  0  0  0  0999 V3000
M  V30 BEGIN CTAB
M  V30 COUNTS 12 12 0 0 1
M  V30 BEGIN ATOM
M  V30 1 C 74.606300 55.175900 41.614200 0 CFG=2
M  V30 2 C 74.449200 56.081900 42.853000 0
M  V30 3 C 73.672400 57.257700 42.291000 0
M  V30 4 O 73.051200 58.058000 42.962100 0
M  V30 5 N 73.651800 57.240600 40.976600 0
M  V30 6 C 74.088600 56.100200 40.492300 0
M  V30 7 O 74.072300 55.836000 39.297300 0
M  V30 8 H 75.665600 55.009800 41.409500 0
M  V30 9 H 73.892300 55.632000 43.673700 0
M  V30 10 H 75.414300 56.417600 43.234500 0
M  V30 11 H 73.214400 57.951300 40.411100 0
M  V30 12 R 73.874300 53.800500 41.785900 0
M  V30 END ATOM
M  V30 BEGIN BOND
M  V30 1 1 2 1
M  V30 2 1 3 2
M  V30 3 2 4 3
M  V30 4 1 5 3
M  V30 5 1 6 1
M  V30 6 1 6 5
M  V30 7 2 7 6
M  V30 8 1 1 8 CFG=3
M  V30 9 1 9 2
M  V30 10 1 10 2
M  V30 11 1 11 5
M  V30 12 1 12 1
M  V30 END BOND
M  V30 END CTAB
M  END
$$$$
R-group 794 (11970-2)
     RDKit          3D

  0  0  0  0  0  0  0  0  0  0999 V3000
M  V30 BEGIN CTAB
M  V30 COUNTS 14 14 0 0 1
M  V30 BEGIN ATOM
M  V30 1 C 73.921000 54.575700 41.924700 0
M  V30 2 C 74.758800 55.237500 42.743000 0
M  V30 3 C 75.076100 56.603900 42.443200 0
M  V30 4 O 76.072100 57.124600 42.924500 0
M  V30 5 C 74.192400 57.258000 41.477800 0
M  V30 6 C 73.491500 56.489100 40.632500 0
M  V30 7 C 72.469200 56.972700 39.655300 0
M  V30 8 O 73.434300 55.139800 40.774500 0
M  V30 9 H 75.219000 54.816100 43.619600 0
M  V30 10 H 74.080000 58.328900 41.477400 0
M  V30 11 H 71.958900 57.809500 40.125500 0
M  V30 12 H 72.933400 57.261400 38.716600 0
M  V30 13 H 71.731900 56.197900 39.445400 0
M  V30 14 R 73.553400 53.119100 42.023000 0
M  V30 END ATOM
M  V30 BEGIN BOND
M  V30 1 2 2 1
M  V30 2 1 3 2
M  V30 3 2 4 3
M  V30 4 1 5 3
M  V30 5 2 6 5
M  V30 6 1 7 6
M  V30 7 1 8 1
M  V30 8 1 8 6
M  V30 9 1 9 2
M  V30 10 1 10 5
M  V30 11 1 11 7
M  V30 12 1 12 7
M  V30 13 1 13 7
M  V30 14 1 14 1
M  V30 END BOND
M  V30 END CTAB
M  END
$$$$
R-group 795 (1896-1)
     RDKit          3D

  0  0  0  0  0  0  0  0  0  0999 V3000
M  V30 BEGIN CTAB
M  V30 COUNTS 14 14 0 0 1
M  V30 BEGIN ATOM
M  V30 1 C 73.030900 54.329700 42.282000 0
M  V30 2 C 73.751300 55.408700 41.576100 0
M  V30 3 N 73.459200 55.952100 40.394700 0
M  V30 4 C 74.471500 56.858000 40.190800 0
M  V30 5 C 75.287000 56.844000 41.293400 0
M  V30 6 C 76.505900 57.587400 41.665200 0
M  V30 7 O 74.861700 55.901600 42.168000 0
M  V30 8 H 71.955000 54.457600 42.164000 0
M  V30 9 H 73.272600 54.452300 43.323100 0
M  V30 10 H 74.507800 57.501800 39.314800 0
M  V30 11 H 76.776100 58.329800 40.915900 0
M  V30 12 H 76.473100 58.056500 42.653700 0
M  V30 13 H 77.272300 56.850900 41.724700 0
M  V30 14 R 73.410600 52.930100 41.815700 0
M  V30 END ATOM
M  V30 BEGIN BOND
M  V30 1 1 2 1
M  V30 2 2 3 2
M  V30 3 1 4 3
M  V30 4 2 5 4
M  V30 5 1 6 5
M  V30 6 1 7 2
M  V30 7 1 7 5
M  V30 8 1 8 1
M  V30 9 1 9 1
M  V30 10 1 10 4
M  V30 11 1 11 6
M  V30 12 1 12 6
M  V30 13 1 13 6
M  V30 14 1 14 1
M  V30 END BOND
M  V30 END CTAB
M  END
$$$$
R-group 796 (1118-1)
     RDKit          3D

  0  0  0  0  0  0  0  0  0  0999 V3000
M  V30 BEGIN CTAB
M  V30 COUNTS 8 7 0 0 1
M  V30 BEGIN ATOM
M  V30 1 C 73.749600 55.149700 42.204800 0
M  V30 2 C 75.226200 55.549800 42.344900 0
M  V30 3 F 75.321200 56.858000 42.523700 0
M  V30 4 H 73.272200 55.794900 41.468400 0
M  V30 5 H 73.260100 55.386000 43.149100 0
M  V30 6 H 75.672300 55.094700 43.225600 0
M  V30 7 H 75.827200 55.303300 41.473000 0
M  V30 8 R 73.491300 53.661500 41.859200 0
M  V30 END ATOM
M  V30 BEGIN BOND
M  V30 1 1 2 1
M  V30 2 1 3 2
M  V30 3 1 4 1
M  V30 4 1 5 1
M  V30 5 1 6 2
M  V30 6 1 7 2
M  V30 7 1 8 1
M  V30 END BOND
M  V30 END CTAB
M  END
$$$$
R-group 797 (16392-2)
     RDKit          3D

  0  0  0  0  0  0  0  0  0  0999 V3000
M  V30 BEGIN CTAB
M  V30 COUNTS 20 20 0 0 1
M  V30 BEGIN ATOM
M  V30 1 O 73.731100 54.866000 41.906200 0
M  V30 2 C 73.521400 55.621800 43.086600 0
M  V30 3 C 74.045100 57.044600 42.924500 0 CFG=1
M  V30 4 C 75.574100 57.065500 43.082400 0
M  V30 5 C 76.214100 56.487100 41.826900 0
M  V30 6 C 75.648200 57.065800 40.539100 0
M  V30 7 O 74.222400 56.994800 40.494400 0
M  V30 8 C 73.571900 57.643800 41.588000 0
M  V30 9 H 72.453600 55.660000 43.301300 0
M  V30 10 H 74.072400 55.169200 43.910200 0
M  V30 11 H 73.613800 57.643000 43.724900 0
M  V30 12 H 75.947700 58.058500 43.324700 0
M  V30 13 H 75.892500 56.460700 43.932200 0
M  V30 14 H 77.272300 56.696700 41.843100 0
M  V30 15 H 76.072400 55.408000 41.812100 0
M  V30 16 H 76.071800 58.056100 40.379300 0
M  V30 17 H 76.005800 56.458800 39.724700 0
M  V30 18 H 72.504400 57.484100 41.464700 0
M  V30 19 H 73.672000 58.726100 41.581600 0
M  V30 20 R 73.429600 53.486600 41.937900 0
M  V30 END ATOM
M  V30 BEGIN BOND
M  V30 1 1 2 1
M  V30 2 1 3 2
M  V30 3 1 4 3
M  V30 4 1 5 4
M  V30 5 1 6 5
M  V30 6 1 7 6
M  V30 7 1 8 3
M  V30 8 1 8 7
M  V30 9 1 9 2
M  V30 10 1 10 2
M  V30 11 1 3 11 CFG=1
M  V30 12 1 12 4
M  V30 13 1 13 4
M  V30 14 1 14 5
M  V30 15 1 15 5
M  V30 16 1 16 6
M  V30 17 1 17 6
M  V30 18 1 18 8
M  V30 19 1 19 8
M  V30 20 1 20 1
M  V30 END BOND
M  V30 END CTAB
M  END
$$$$
R-group 798 (21970-1)
     RDKit          3D

  0  0  0  0  0  0  0  0  0  0999 V3000
M  V30 BEGIN CTAB
M  V30 COUNTS 15 14 0 0 1
M  V30 BEGIN ATOM
M  V30 1 C 72.176300 59.067200 41.517200 0
M  V30 2 C 72.956300 57.818500 41.087800 0
M  V30 3 N 73.672200 57.263600 42.241800 0
M  V30 4 S 74.583200 55.839000 42.091700 0
M  V30 5 O 75.352900 55.658100 43.324700 0
M  V30 6 O 75.216200 55.855600 40.768700 0
M  V30 7 N 73.276100 54.727200 42.124700 0
M  V30 8 H 71.859800 59.654700 40.658300 0
M  V30 9 H 71.297400 58.858000 42.124800 0
M  V30 10 H 72.818300 59.691300 42.124500 0
M  V30 11 H 73.672200 58.057800 40.309500 0
M  V30 12 H 72.318500 57.073000 40.616300 0
M  V30 13 H 74.051600 57.929500 42.913600 0
M  V30 14 H 72.848100 54.782000 43.055900 0
M  V30 15 R 73.463600 53.327600 41.789900 0
M  V30 END ATOM
M  V30 BEGIN BOND
M  V30 1 1 2 1
M  V30 2 1 3 2
M  V30 3 1 4 3
M  V30 4 2 5 4
M  V30 5 2 6 4
M  V30 6 1 7 4
M  V30 7 1 8 1
M  V30 8 1 9 1
M  V30 9 1 10 1
M  V30 10 1 11 2
M  V30 11 1 12 2
M  V30 12 1 13 3
M  V30 13 1 14 7
M  V30 14 1 15 7
M  V30 END BOND
M  V30 END CTAB
M  END
$$$$
R-group 799 (39709-1)
     RDKit          3D

  0  0  0  0  0  0  0  0  0  0999 V3000
M  V30 BEGIN CTAB
M  V30 COUNTS 9 8 0 0 1
M  V30 BEGIN ATOM
M  V30 1 O 73.523100 55.069600 42.433400 0
M  V30 2 C 74.224300 56.180400 42.061800 0
M  V30 3 C 75.744700 55.998200 42.097900 0
M  V30 4 F 73.820400 56.636400 40.850400 0
M  V30 5 F 73.929600 57.179500 42.924600 0
M  V30 6 H 76.257000 56.931300 41.865500 0
M  V30 7 H 76.071300 55.678700 43.087300 0
M  V30 8 H 76.072600 55.257800 41.373200 0
M  V30 9 R 73.632600 53.803200 41.765200 0
M  V30 END ATOM
M  V30 BEGIN BOND
M  V30 1 1 2 1
M  V30 2 1 3 2
M  V30 3 1 4 2
M  V30 4 1 5 2
M  V30 5 1 6 3
M  V30 6 1 7 3
M  V30 7 1 8 3
M  V30 8 1 9 1
M  V30 END BOND
M  V30 END CTAB
M  END
$$$$
R-group 800 (265-1)
     RDKit          3D

  0  0  0  0  0  0  0  0  0  0999 V3000
M  V30 BEGIN CTAB
M  V30 COUNTS 6 5 0 0 1
M  V30 BEGIN ATOM
M  V30 1 O 74.042300 55.031100 41.594000 0
M  V30 2 C 74.102300 55.845800 42.672300 0
M  V30 3 F 75.272400 55.657900 43.324000 0
M  V30 4 F 74.071300 57.138700 42.268500 0
M  V30 5 H 73.260900 55.675600 43.338200 0
M  V30 6 R 73.602500 53.693400 41.788900 0
M  V30 END ATOM
M  V30 BEGIN BOND
M  V30 1 1 2 1
M  V30 2 1 3 2
M  V30 3 1 4 2
M  V30 4 1 5 2
M  V30 5 1 6 1
M  V30 END BOND
M  V30 END CTAB
M  END
$$$$
R-group 801 (42365-1)
     RDKit          3D

  0  0  0  0  0  0  0  0  0  0999 V3000
M  V30 BEGIN CTAB
M  V30 COUNTS 9 9 0 0 1
M  V30 BEGIN ATOM
M  V30 1 C 73.882300 54.921500 41.890700 0
M  V30 2 C 74.475900 55.606200 42.913800 0
M  V30 3 N 74.590400 56.907100 42.524700 0
M  V30 4 N 74.071800 57.150500 41.316300 0
M  V30 5 C 73.680800 55.958600 40.927000 0
M  V30 6 F 73.100200 55.800900 39.715800 0
M  V30 7 H 74.817100 55.284600 43.886100 0
M  V30 8 H 74.993500 57.646300 43.086600 0
M  V30 9 R 73.518400 53.454600 41.834600 0
M  V30 END ATOM
M  V30 BEGIN BOND
M  V30 1 2 2 1
M  V30 2 1 3 2
M  V30 3 1 4 3
M  V30 4 1 5 1
M  V30 5 2 5 4
M  V30 6 1 6 5
M  V30 7 1 7 2
M  V30 8 1 8 3
M  V30 9 1 9 1
M  V30 END BOND
M  V30 END CTAB
M  END
$$$$
R-group 802 (16194-2)
     RDKit          3D

  0  0  0  0  0  0  0  0  0  0999 V3000
M  V30 BEGIN CTAB
M  V30 COUNTS 12 11 0 0 1
M  V30 BEGIN ATOM
M  V30 1 O 74.479800 54.928900 41.870300 0
M  V30 2 C 73.740300 56.131100 41.938600 0 CFG=1
M  V30 3 C 74.727400 57.144900 42.521600 0
M  V30 4 C 73.311100 56.541800 40.522400 0
M  V30 5 F 72.872700 57.792100 40.526300 0
M  V30 6 H 72.884800 56.041500 42.612200 0
M  V30 7 H 74.212300 58.058400 42.814200 0
M  V30 8 H 75.231900 56.745600 43.399000 0
M  V30 9 H 75.503500 57.397600 41.798300 0
M  V30 10 H 74.146700 56.499500 39.822900 0
M  V30 11 H 72.500200 55.937300 40.125600 0
M  V30 12 R 73.787800 53.702600 42.060200 0
M  V30 END ATOM
M  V30 BEGIN BOND
M  V30 1 1 2 1
M  V30 2 1 3 2
M  V30 3 1 4 2
M  V30 4 1 5 4
M  V30 5 1 2 6 CFG=1
M  V30 6 1 7 3
M  V30 7 1 8 3
M  V30 8 1 9 3
M  V30 9 1 10 4
M  V30 10 1 11 4
M  V30 11 1 12 1
M  V30 END BOND
M  V30 END CTAB
M  END
$$$$
R-group 803 (37771-1)
     RDKit          3D

  0  0  0  0  0  0  0  0  0  0999 V3000
M  V30 BEGIN CTAB
M  V30 COUNTS 18 17 0 0 1
M  V30 BEGIN ATOM
M  V30 1 C 76.472300 57.292700 41.934600 0
M  V30 2 C 75.764600 56.010900 41.528600 0
M  V30 3 C 74.487300 55.638800 42.308400 0 CFG=1
M  V30 4 C 73.396400 56.701500 42.096600 0 CFG=1
M  V30 5 C 73.543900 58.058000 42.765400 0
M  V30 6 O 73.272300 56.966000 40.703400 0
M  V30 7 H 77.536900 57.258000 41.724500 0
M  V30 8 H 76.072600 58.085200 41.321400 0
M  V30 9 H 76.354400 57.531800 42.992000 0
M  V30 10 H 76.472200 55.258000 41.724800 0
M  V30 11 H 75.614700 56.017800 40.450900 0
M  V30 12 H 74.743200 55.697700 43.366500 0
M  V30 13 H 72.534100 56.318900 42.627200 0
M  V30 14 H 74.046200 57.997000 43.724600 0
M  V30 15 H 74.072000 58.750700 42.124900 0
M  V30 16 H 72.559000 58.497600 42.924800 0
M  V30 17 H 74.106300 57.271800 40.381600 0
M  V30 18 R 73.954700 54.156800 42.081200 0
M  V30 END ATOM
M  V30 BEGIN BOND
M  V30 1 1 2 1
M  V30 2 1 3 2
M  V30 3 1 4 3
M  V30 4 1 5 4
M  V30 5 1 6 4
M  V30 6 1 7 1
M  V30 7 1 8 1
M  V30 8 1 9 1
M  V30 9 1 10 2
M  V30 10 1 11 2
M  V30 11 1 3 12 CFG=1
M  V30 12 1 4 13 CFG=1
M  V30 13 1 14 5
M  V30 14 1 15 5
M  V30 15 1 16 5
M  V30 16 1 17 6
M  V30 17 1 18 3
M  V30 END BOND
M  V30 END CTAB
M  END
$$$$
R-group 804 (7472-2)
     RDKit          3D

  0  0  0  0  0  0  0  0  0  0999 V3000
M  V30 BEGIN CTAB
M  V30 COUNTS 17 17 0 0 1
M  V30 BEGIN ATOM
M  V30 1 O 73.272500 54.675100 42.193700 0
M  V30 2 C 73.497700 55.825700 41.393900 0 CFG=1
M  V30 3 C 73.096900 56.991100 42.309900 0
M  V30 4 C 74.400000 57.658000 42.683700 0
M  V30 5 C 75.523500 56.695600 42.327900 0 CFG=1
M  V30 6 O 75.620800 55.713000 43.325400 0
M  V30 7 C 74.995000 56.015400 41.080400 0
M  V30 8 H 72.872400 55.825000 40.502600 0
M  V30 9 H 72.472400 57.705000 41.775100 0
M  V30 10 H 72.524900 56.657000 43.186200 0
M  V30 11 H 74.434100 58.053700 43.708200 0
M  V30 12 H 74.450700 58.458000 41.951100 0
M  V30 13 H 76.482900 57.194100 42.176800 0
M  V30 14 H 75.536500 55.098000 40.846500 0
M  V30 15 H 75.113800 56.683700 40.226400 0
M  V30 16 H 74.784700 55.264800 43.362700 0
M  V30 17 R 73.453200 53.372600 41.675500 0
M  V30 END ATOM
M  V30 BEGIN BOND
M  V30 1 1 2 1
M  V30 2 1 3 2
M  V30 3 1 4 3
M  V30 4 1 5 4
M  V30 5 1 6 5
M  V30 6 1 7 2
M  V30 7 1 7 5
M  V30 8 1 2 8 CFG=3
M  V30 9 1 9 3
M  V30 10 1 10 3
M  V30 11 1 11 4
M  V30 12 1 12 4
M  V30 13 1 5 13 CFG=3
M  V30 14 1 14 7
M  V30 15 1 15 7
M  V30 16 1 16 6
M  V30 17 1 17 1
M  V30 END BOND
M  V30 END CTAB
M  END
$$$$
R-group 805 (16250-2)
     RDKit          3D

  0  0  0  0  0  0  0  0  0  0999 V3000
M  V30 BEGIN CTAB
M  V30 COUNTS 9 9 0 0 1
M  V30 BEGIN ATOM
M  V30 1 C 74.336700 55.248300 42.014300 0 CFG=2
M  V30 2 C 74.994600 55.926900 43.201900 0
M  V30 3 C 73.627800 56.359700 42.756500 0 CFG=1
M  V30 4 F 73.559400 57.588600 42.126200 0
M  V30 5 H 74.780200 55.527800 41.061700 0
M  V30 6 H 75.064800 55.384600 44.136900 0
M  V30 7 H 75.824200 56.601200 42.998000 0
M  V30 8 H 72.761800 56.160300 43.385300 0
M  V30 9 R 73.796200 53.813100 42.055200 0
M  V30 END ATOM
M  V30 BEGIN BOND
M  V30 1 1 2 1
M  V30 2 1 3 1
M  V30 3 1 3 2
M  V30 4 1 4 3
M  V30 5 1 1 5 CFG=3
M  V30 6 1 6 2
M  V30 7 1 7 2
M  V30 8 1 3 8 CFG=1
M  V30 9 1 9 1
M  V30 END BOND
M  V30 END CTAB
M  END
$$$$
R-group 806 (20060-3)
     RDKit          3D

  0  0  0  0  0  0  0  0  0  0999 V3000
M  V30 BEGIN CTAB
M  V30 COUNTS 12 12 0 0 1
M  V30 BEGIN ATOM
M  V30 1 C 74.641500 55.385800 42.026900 0 CFG=2
M  V30 2 C 74.166700 56.516800 42.943600 0 CFG=2
M  V30 3 C 72.836800 56.627700 43.681300 0
M  V30 4 C 74.131200 56.689900 41.452500 0
M  V30 5 F 75.040800 57.602300 40.945900 0
M  V30 6 F 72.893500 56.726300 40.834700 0
M  V30 7 H 75.721500 55.287700 41.935400 0
M  V30 8 H 74.962700 57.098200 43.402100 0
M  V30 9 H 72.100100 55.914600 43.324600 0
M  V30 10 H 72.872300 56.458000 44.753100 0
M  V30 11 H 72.472800 57.643700 43.545200 0
M  V30 12 R 73.937000 54.024800 41.907400 0
M  V30 END ATOM
M  V30 BEGIN BOND
M  V30 1 1 2 1
M  V30 2 1 3 2
M  V30 3 1 4 1
M  V30 4 1 4 2
M  V30 5 1 5 4
M  V30 6 1 6 4
M  V30 7 1 1 7 CFG=1
M  V30 8 1 2 8 CFG=1
M  V30 9 1 9 3
M  V30 10 1 10 3
M  V30 11 1 11 3
M  V30 12 1 12 1
M  V30 END BOND
M  V30 END CTAB
M  END
$$$$
R-group 807 (900-1)
     RDKit          3D

  0  0  0  0  0  0  0  0  0  0999 V3000
M  V30 BEGIN CTAB
M  V30 COUNTS 12 11 0 0 1
M  V30 BEGIN ATOM
M  V30 1 C 76.503600 57.455900 41.270900 0
M  V30 2 C 75.104200 57.039700 41.689900 0
M  V30 3 O 75.169800 55.687800 42.080600 0
M  V30 4 C 73.932600 55.198400 42.560300 0
M  V30 5 H 76.488000 58.461600 40.870600 0
M  V30 6 H 77.193300 57.429200 42.116800 0
M  V30 7 H 76.870700 56.796400 40.485800 0
M  V30 8 H 74.415600 57.153500 40.850100 0
M  V30 9 H 74.748700 57.658000 42.515300 0
M  V30 10 H 73.100700 55.806000 42.206700 0
M  V30 11 H 73.947100 55.280200 43.646500 0
M  V30 12 R 73.752600 53.754200 42.053300 0
M  V30 END ATOM
M  V30 BEGIN BOND
M  V30 1 1 2 1
M  V30 2 1 3 2
M  V30 3 1 4 3
M  V30 4 1 5 1
M  V30 5 1 6 1
M  V30 6 1 7 1
M  V30 7 1 8 2
M  V30 8 1 9 2
M  V30 9 1 10 4
M  V30 10 1 11 4
M  V30 11 1 12 4
M  V30 END BOND
M  V30 END CTAB
M  END
$$$$
R-group 808 (10826-1)
     RDKit          3D

  0  0  0  0  0  0  0  0  0  0999 V3000
M  V30 BEGIN CTAB
M  V30 COUNTS 13 13 0 0 1
M  V30 BEGIN ATOM
M  V30 1 C 73.965000 54.645700 41.818200 0
M  V30 2 C 74.886500 55.226200 42.762000 0
M  V30 3 N 75.168600 56.516100 42.757600 0
M  V30 4 C 74.459600 57.260100 41.867200 0
M  V30 5 C 73.659900 56.673300 40.859800 0
M  V30 6 C 72.789300 57.577500 40.015900 0
M  V30 7 N 73.397400 55.377100 40.831800 0
M  V30 8 H 75.385600 54.712000 43.523200 0
M  V30 9 H 74.472500 58.298600 41.936600 0
M  V30 10 H 72.874100 58.608700 40.322700 0
M  V30 11 H 73.135600 57.481600 38.981500 0
M  V30 12 H 71.768900 57.274700 40.141800 0
M  V30 13 R 73.524900 53.198600 41.875400 0
M  V30 END ATOM
M  V30 BEGIN BOND
M  V30 1 2 2 1
M  V30 2 1 3 2
M  V30 3 2 4 3
M  V30 4 1 5 4
M  V30 5 1 6 5
M  V30 6 1 7 1
M  V30 7 2 7 5
M  V30 8 1 8 2
M  V30 9 1 9 4
M  V30 10 1 10 6
M  V30 11 1 11 6
M  V30 12 1 12 6
M  V30 13 1 13 1
M  V30 END BOND
M  V30 END CTAB
M  END
$$$$
R-group 809 (5694-1)
     RDKit          3D

  0  0  0  0  0  0  0  0  0  0999 V3000
M  V30 BEGIN CTAB
M  V30 COUNTS 15 15 0 0 1
M  V30 BEGIN ATOM
M  V30 1 C 73.599200 54.871200 42.924600 0
M  V30 2 C 74.297300 55.762200 42.007200 0
M  V30 3 C 75.476800 56.440600 42.032200 0
M  V30 4 C 75.663200 56.858000 40.694600 0
M  V30 5 C 74.545100 56.464700 40.007400 0
M  V30 6 C 74.100200 56.458100 38.597200 0
M  V30 7 O 73.672200 55.899400 40.831300 0
M  V30 8 H 72.582500 55.257200 43.008600 0
M  V30 9 H 74.072300 54.996100 43.893500 0
M  V30 10 H 76.160400 56.520000 42.863800 0
M  V30 11 H 76.525600 57.355100 40.275100 0
M  V30 12 H 74.865800 56.857900 37.934200 0
M  V30 13 H 73.867900 55.444200 38.272200 0
M  V30 14 H 73.186800 57.046800 38.524600 0
M  V30 15 R 73.533000 53.383900 42.458600 0
M  V30 END ATOM
M  V30 BEGIN BOND
M  V30 1 1 2 1
M  V30 2 2 3 2
M  V30 3 1 4 3
M  V30 4 2 5 4
M  V30 5 1 6 5
M  V30 6 1 7 2
M  V30 7 1 7 5
M  V30 8 1 8 1
M  V30 9 1 9 1
M  V30 10 1 10 3
M  V30 11 1 11 4
M  V30 12 1 12 6
M  V30 13 1 13 6
M  V30 14 1 14 6
M  V30 15 1 15 1
M  V30 END BOND
M  V30 END CTAB
M  END
$$$$
R-group 810 (7505-1)
     RDKit          3D

  0  0  0  0  0  0  0  0  0  0999 V3000
M  V30 BEGIN CTAB
M  V30 COUNTS 16 16 0 0 1
M  V30 BEGIN ATOM
M  V30 1 N 73.272200 54.516000 42.125500 0
M  V30 2 C 74.219700 55.364000 41.741700 0
M  V30 3 O 75.272400 54.977500 41.294500 0
M  V30 4 C 73.948700 56.842900 41.704300 0
M  V30 5 C 74.261800 57.252800 40.280600 0
M  V30 6 C 73.490900 56.646700 39.108500 0
M  V30 7 C 73.274500 58.068700 39.536500 0
M  V30 8 H 72.913400 57.066800 41.967100 0
M  V30 9 H 74.605500 57.371100 42.398500 0
M  V30 10 H 75.325800 57.393200 40.078700 0
M  V30 11 H 74.031000 56.462000 38.179400 0
M  V30 12 H 72.688400 55.942600 39.325300 0
M  V30 13 H 72.414300 58.318200 40.125300 0
M  V30 14 H 73.673300 58.874000 38.924800 0
M  V30 15 H 72.452100 54.888600 42.587300 0
M  V30 16 R 73.313000 53.081900 41.922900 0
M  V30 END ATOM
M  V30 BEGIN BOND
M  V30 1 1 2 1
M  V30 2 2 3 2
M  V30 3 1 4 2
M  V30 4 1 5 4
M  V30 5 1 6 5
M  V30 6 1 7 5
M  V30 7 1 7 6
M  V30 8 1 8 4
M  V30 9 1 9 4
M  V30 10 1 10 5
M  V30 11 1 11 6
M  V30 12 1 12 6
M  V30 13 1 13 7
M  V30 14 1 14 7
M  V30 15 1 15 1
M  V30 16 1 16 1
M  V30 END BOND
M  V30 END CTAB
M  END
$$$$
R-group 811 (2283-1)
     RDKit          3D

  0  0  0  0  0  0  0  0  0  0999 V3000
M  V30 BEGIN CTAB
M  V30 COUNTS 16 16 0 0 1
M  V30 BEGIN ATOM
M  V30 1 N 73.672100 54.980300 42.129100 0
M  V30 2 C 74.377300 55.923300 41.494300 0
M  V30 3 O 75.291700 55.681000 40.724300 0
M  V30 4 C 74.000500 57.382300 41.726700 0
M  V30 5 C 72.891000 57.912600 40.811000 0
M  V30 6 C 72.401900 58.739700 42.009500 0
M  V30 7 C 73.110000 57.727500 42.922900 0
M  V30 8 H 74.872400 58.022900 41.690600 0
M  V30 9 H 73.271300 58.486900 39.966500 0
M  V30 10 H 72.188400 57.146800 40.482800 0
M  V30 11 H 72.872100 59.710700 42.055400 0
M  V30 12 H 71.323800 58.858000 42.125400 0
M  V30 13 H 72.479200 56.921400 43.291500 0
M  V30 14 H 73.683300 58.169000 43.724800 0
M  V30 15 H 73.008500 55.314800 42.813800 0
M  V30 16 R 73.590900 53.545200 41.877800 0
M  V30 END ATOM
M  V30 BEGIN BOND
M  V30 1 1 2 1
M  V30 2 2 3 2
M  V30 3 1 4 2
M  V30 4 1 5 4
M  V30 5 1 6 5
M  V30 6 1 7 4
M  V30 7 1 7 6
M  V30 8 1 8 4
M  V30 9 1 9 5
M  V30 10 1 10 5
M  V30 11 1 11 6
M  V30 12 1 12 6
M  V30 13 1 13 7
M  V30 14 1 14 7
M  V30 15 1 15 1
M  V30 16 1 16 1
M  V30 END BOND
M  V30 END CTAB
M  END
$$$$
R-group 812 (1295-1)
     RDKit          3D

  0  0  0  0  0  0  0  0  0  0999 V3000
M  V30 BEGIN CTAB
M  V30 COUNTS 18 17 0 0 1
M  V30 BEGIN ATOM
M  V30 1 C 76.460900 56.244800 40.733300 0
M  V30 2 C 75.560600 57.268700 41.385600 0
M  V30 3 C 74.821300 56.759700 42.641000 0 CFG=1
M  V30 4 C 73.624200 57.603600 43.066300 0
M  V30 5 N 74.400300 55.387100 42.524000 0
M  V30 6 C 73.686300 54.815900 41.554100 0
M  V30 7 O 73.280800 55.419700 40.556800 0
M  V30 8 H 77.228900 56.731100 40.129200 0
M  V30 9 H 76.872200 55.658000 41.535400 0
M  V30 10 H 75.901700 55.547700 40.124300 0
M  V30 11 H 74.843500 57.657600 40.659500 0
M  V30 12 H 76.245100 58.057600 41.671800 0
M  V30 13 H 75.544600 56.759900 43.454500 0
M  V30 14 H 73.977500 58.449600 43.624300 0
M  V30 15 H 73.025100 57.942600 42.221500 0
M  V30 16 H 72.962500 57.054400 43.737600 0
M  V30 17 H 74.661800 54.787500 43.293800 0
M  V30 18 R 73.449000 53.317000 41.749500 0
M  V30 END ATOM
M  V30 BEGIN BOND
M  V30 1 1 2 1
M  V30 2 1 3 2
M  V30 3 1 4 3
M  V30 4 1 5 3
M  V30 5 1 6 5
M  V30 6 2 7 6
M  V30 7 1 8 1
M  V30 8 1 9 1
M  V30 9 1 10 1
M  V30 10 1 11 2
M  V30 11 1 12 2
M  V30 12 1 3 13 CFG=1
M  V30 13 1 14 4
M  V30 14 1 15 4
M  V30 15 1 16 4
M  V30 16 1 17 5
M  V30 17 1 18 6
M  V30 END BOND
M  V30 END CTAB
M  END
$$$$
R-group 813 (16172-3)
     RDKit          3D

  0  0  0  0  0  0  0  0  0  0999 V3000
M  V30 BEGIN CTAB
M  V30 COUNTS 16 16 0 0 1
M  V30 BEGIN ATOM
M  V30 1 O 73.719300 54.953200 41.725000 0
M  V30 2 C 73.293000 55.544700 42.926000 0
M  V30 3 C 73.385300 57.037800 42.969000 0 CFG=2
M  V30 4 C 73.827500 57.890900 41.814000 0
M  V30 5 C 74.756800 57.657800 42.989000 0 CFG=2
M  V30 6 C 76.048100 56.887300 42.786600 0
M  V30 7 H 72.263800 55.259300 43.150200 0
M  V30 8 H 73.952700 55.209500 43.723800 0
M  V30 9 H 72.688800 57.488200 43.674000 0
M  V30 10 H 74.055600 57.394700 40.872900 0
M  V30 11 H 73.339000 58.857500 41.725400 0
M  V30 12 H 74.863200 58.456400 43.724700 0
M  V30 13 H 75.954300 56.141900 41.996400 0
M  V30 14 H 76.837000 57.584900 42.505300 0
M  V30 15 H 76.333400 56.386800 43.712400 0
M  V30 16 R 73.494300 53.552400 41.714900 0
M  V30 END ATOM
M  V30 BEGIN BOND
M  V30 1 1 2 1
M  V30 2 1 3 2
M  V30 3 1 4 3
M  V30 4 1 5 3
M  V30 5 1 5 4
M  V30 6 1 6 5
M  V30 7 1 7 2
M  V30 8 1 8 2
M  V30 9 1 3 9 CFG=1
M  V30 10 1 10 4
M  V30 11 1 11 4
M  V30 12 1 5 12 CFG=1
M  V30 13 1 13 6
M  V30 14 1 14 6
M  V30 15 1 15 6
M  V30 16 1 16 1
M  V30 END BOND
M  V30 END CTAB
M  END
$$$$
R-group 814 (3458-2)
     RDKit          3D

  0  0  0  0  0  0  0  0  0  0999 V3000
M  V30 BEGIN CTAB
M  V30 COUNTS 17 17 0 0 1
M  V30 BEGIN ATOM
M  V30 1 O 73.672200 54.803400 42.323800 0
M  V30 2 C 74.923500 55.469800 42.356700 0
M  V30 3 C 74.622700 56.897700 41.896700 0 CFG=1
M  V30 4 C 74.184200 56.957200 40.442700 0
M  V30 5 C 73.037800 57.960800 40.422400 0
M  V30 6 O 72.872200 58.458000 41.742500 0
M  V30 7 C 73.466800 57.556700 42.661100 0
M  V30 8 H 75.318000 55.458500 43.373200 0
M  V30 9 H 75.671800 55.016100 41.709800 0
M  V30 10 H 75.517800 57.509600 42.003700 0
M  V30 11 H 75.006800 57.257900 39.793600 0
M  V30 12 H 73.828200 55.997400 40.074200 0
M  V30 13 H 73.272200 58.768800 39.725200 0
M  V30 14 H 72.109400 57.474300 40.124800 0
M  V30 15 H 72.706500 56.843500 42.972100 0
M  V30 16 H 73.808400 58.058100 43.563500 0
M  V30 17 R 73.588300 53.418100 42.059900 0
M  V30 END ATOM
M  V30 BEGIN BOND
M  V30 1 1 2 1
M  V30 2 1 3 2
M  V30 3 1 4 3
M  V30 4 1 5 4
M  V30 5 1 6 5
M  V30 6 1 7 3
M  V30 7 1 7 6
M  V30 8 1 8 2
M  V30 9 1 9 2
M  V30 10 1 3 10 CFG=3
M  V30 11 1 11 4
M  V30 12 1 12 4
M  V30 13 1 13 5
M  V30 14 1 14 5
M  V30 15 1 15 7
M  V30 16 1 16 7
M  V30 17 1 17 1
M  V30 END BOND
M  V30 END CTAB
M  END
$$$$
R-group 815 (5439-2)
     RDKit          3D

  0  0  0  0  0  0  0  0  0  0999 V3000
M  V30 BEGIN CTAB
M  V30 COUNTS 12 11 0 0 1
M  V30 BEGIN ATOM
M  V30 1 C 73.997700 55.296500 41.834600 0 CFG=2
M  V30 2 C 75.473700 55.699200 41.601700 0
M  V30 3 C 73.478600 55.981500 43.104600 0
M  V30 4 O 73.541600 57.380400 42.924700 0
M  V30 5 H 73.423900 55.722400 41.010200 0
M  V30 6 H 76.071900 55.536800 42.495300 0
M  V30 7 H 75.948400 55.177300 40.778200 0
M  V30 8 H 75.551900 56.761800 41.369800 0
M  V30 9 H 72.445900 55.708700 43.324300 0
M  V30 10 H 74.072500 55.658000 43.959800 0
M  V30 11 H 73.274400 57.793200 43.731000 0
M  V30 12 R 73.702300 53.763500 41.852200 0
M  V30 END ATOM
M  V30 BEGIN BOND
M  V30 1 1 2 1
M  V30 2 1 3 1
M  V30 3 1 4 3
M  V30 4 1 1 5 CFG=3
M  V30 5 1 6 2
M  V30 6 1 7 2
M  V30 7 1 8 2
M  V30 8 1 9 3
M  V30 9 1 10 3
M  V30 10 1 11 4
M  V30 11 1 12 1
M  V30 END BOND
M  V30 END CTAB
M  END
$$$$
R-group 816 (16396-2)
     RDKit          3D

  0  0  0  0  0  0  0  0  0  0999 V3000
M  V30 BEGIN CTAB
M  V30 COUNTS 19 19 0 0 1
M  V30 BEGIN ATOM
M  V30 1 C 73.543200 54.652300 42.334000 0
M  V30 2 C 74.949200 55.160400 42.193400 0 CFG=1
M  V30 3 C 75.410600 55.550400 40.802100 0
M  V30 4 C 75.277200 56.988900 41.204800 0 CFG=2
M  V30 5 C 73.998200 57.658000 40.676700 0
M  V30 6 O 76.473700 57.657100 40.923400 0
M  V30 7 C 75.233000 56.567800 42.666300 0
M  V30 8 H 72.872800 55.198300 41.692200 0
M  V30 9 H 73.246000 54.921000 43.324500 0
M  V30 10 H 75.672200 54.540100 42.698600 0
M  V30 11 H 76.430000 55.264400 40.533800 0
M  V30 12 H 74.705900 55.350600 40.002300 0
M  V30 13 H 73.141700 56.990600 40.685100 0
M  V30 14 H 73.697200 58.475500 41.324300 0
M  V30 15 H 74.068500 57.987800 39.635600 0
M  V30 16 H 74.431400 57.030900 43.245000 0
M  V30 17 H 76.192100 56.666700 43.177400 0
M  V30 18 H 76.782900 57.352800 40.083500 0
M  V30 19 R 73.391900 53.155600 42.067000 0
M  V30 END ATOM
M  V30 BEGIN BOND
M  V30 1 1 2 1
M  V30 2 1 3 2
M  V30 3 1 4 3
M  V30 4 1 5 4
M  V30 5 1 4 6 CFG=1
M  V30 6 1 7 2
M  V30 7 1 7 4
M  V30 8 1 8 1
M  V30 9 1 9 1
M  V30 10 1 2 10 CFG=1
M  V30 11 1 11 3
M  V30 12 1 12 3
M  V30 13 1 13 5
M  V30 14 1 14 5
M  V30 15 1 15 5
M  V30 16 1 16 7
M  V30 17 1 17 7
M  V30 18 1 18 6
M  V30 19 1 19 1
M  V30 END BOND
M  V30 END CTAB
M  END
$$$$
R-group 817 (1-1)
     RDKit          3D

  0  0  0  0  0  0  0  0  0  0999 V3000
M  V30 BEGIN CTAB
M  V30 COUNTS 5 4 0 0 1
M  V30 BEGIN ATOM
M  V30 1 C 73.936700 55.222800 42.139000 0
M  V30 2 H 73.869400 55.405500 43.211700 0
M  V30 3 H 74.954400 55.457900 41.826200 0
M  V30 4 H 73.271500 55.931500 41.648200 0
M  V30 5 R 73.572100 53.765500 41.795600 0
M  V30 END ATOM
M  V30 BEGIN BOND
M  V30 1 1 2 1
M  V30 2 1 3 1
M  V30 3 1 4 1
M  V30 4 1 5 1
M  V30 END BOND
M  V30 END CTAB
M  END
$$$$
R-group 818 (2472-1)
     RDKit          3D

  0  0  0  0  0  0  0  0  0  0999 V3000
M  V30 BEGIN CTAB
M  V30 COUNTS 15 15 0 0 1
M  V30 BEGIN ATOM
M  V30 1 C 73.416200 54.585800 42.342200 0
M  V30 2 N 73.725600 55.383700 41.172300 0
M  V30 3 N 72.872400 55.375400 40.124700 0
M  V30 4 C 73.276700 56.320900 39.328400 0
M  V30 5 C 74.496300 56.858000 39.764500 0
M  V30 6 C 74.748900 56.280100 40.970000 0
M  V30 7 C 75.836700 56.551800 41.953800 0
M  V30 8 H 72.408100 54.854700 42.653100 0
M  V30 9 H 74.051800 54.902200 43.168800 0
M  V30 10 H 72.649700 56.633500 38.524700 0
M  V30 11 H 75.064600 57.657500 39.324700 0
M  V30 12 H 76.506000 57.332300 41.590400 0
M  V30 13 H 75.430800 56.882100 42.910100 0
M  V30 14 H 76.430800 55.658500 42.120400 0
M  V30 15 R 73.476300 53.055500 42.131000 0
M  V30 END ATOM
M  V30 BEGIN BOND
M  V30 1 1 2 1
M  V30 2 1 3 2
M  V30 3 2 4 3
M  V30 4 1 5 4
M  V30 5 1 6 2
M  V30 6 2 6 5
M  V30 7 1 7 6
M  V30 8 1 8 1
M  V30 9 1 9 1
M  V30 10 1 10 4
M  V30 11 1 11 5
M  V30 12 1 12 7
M  V30 13 1 13 7
M  V30 14 1 14 7
M  V30 15 1 15 1
M  V30 END BOND
M  V30 END CTAB
M  END
$$$$
R-group 819 (12888-4)
     RDKit          3D

  0  0  0  0  0  0  0  0  0  0999 V3000
M  V30 BEGIN CTAB
M  V30 COUNTS 23 22 0 0 1
M  V30 BEGIN ATOM
M  V30 1 C 73.262300 57.773800 43.298500 0
M  V30 2 C 73.399000 57.740800 41.788500 0
M  V30 3 C 74.546300 56.888500 41.219300 0 CFG=2
M  V30 4 C 74.259700 56.740300 39.706300 0
M  V30 5 C 74.764100 55.516800 41.931500 0 CFG=1
M  V30 6 C 75.446200 55.640700 43.319300 0
M  V30 7 C 73.438800 54.716200 42.003500 0
M  V30 8 H 72.478500 58.458000 43.562000 0
M  V30 9 H 74.212900 58.070700 43.724400 0
M  V30 10 H 72.947700 56.833800 43.737000 0
M  V30 11 H 72.472300 57.386100 41.370100 0
M  V30 12 H 73.482000 58.763700 41.433300 0
M  V30 13 H 75.476200 57.449500 41.320200 0
M  V30 14 H 73.218900 56.492300 39.500600 0
M  V30 15 H 74.472400 57.658600 39.164500 0
M  V30 16 H 74.826500 55.950400 39.243600 0
M  V30 17 H 75.485800 54.981900 41.319800 0
M  V30 18 H 74.718500 55.657800 44.122800 0
M  V30 19 H 76.067200 54.791900 43.580600 0
M  V30 20 H 76.073900 56.528100 43.393900 0
M  V30 21 H 72.906700 54.918800 42.924600 0
M  V30 22 H 72.778500 55.089000 41.230300 0
M  V30 23 R 73.477800 53.198500 41.822600 0
M  V30 END ATOM
M  V30 BEGIN BOND
M  V30 1 1 2 1
M  V30 2 1 3 2
M  V30 3 1 4 3
M  V30 4 1 5 3
M  V30 5 1 6 5
M  V30 6 1 7 5
M  V30 7 1 8 1
M  V30 8 1 9 1
M  V30 9 1 10 1
M  V30 10 1 11 2
M  V30 11 1 12 2
M  V30 12 1 3 13 CFG=3
M  V30 13 1 14 4
M  V30 14 1 15 4
M  V30 15 1 16 4
M  V30 16 1 5 17 CFG=3
M  V30 17 1 18 6
M  V30 18 1 19 6
M  V30 19 1 20 6
M  V30 20 1 21 7
M  V30 21 1 22 7
M  V30 22 1 23 7
M  V30 END BOND
M  V30 END CTAB
M  END
$$$$
R-group 820 (4869-2)
     RDKit          3D

  0  0  0  0  0  0  0  0  0  0999 V3000
M  V30 BEGIN CTAB
M  V30 COUNTS 18 17 0 0 1
M  V30 BEGIN ATOM
M  V30 1 C 73.753900 55.032700 42.244500 0
M  V30 2 C 75.049900 55.755300 41.804500 0 CFG=2
M  V30 3 O 75.522800 56.458000 42.924700 0
M  V30 4 C 74.965600 56.744800 40.608100 0
M  V30 5 C 76.306400 57.526200 40.504300 0
M  V30 6 C 73.710200 57.658000 40.599300 0
M  V30 7 H 73.672300 55.091300 43.324700 0
M  V30 8 H 72.872300 55.555400 41.920500 0
M  V30 9 H 75.822800 55.020500 41.592700 0
M  V30 10 H 74.878900 56.152900 39.698700 0
M  V30 11 H 76.568000 58.058000 41.415300 0
M  V30 12 H 76.337300 58.271300 39.724700 0
M  V30 13 H 77.129800 56.858000 40.278100 0
M  V30 14 H 73.672200 58.311300 41.471400 0
M  V30 15 H 73.672200 58.271300 39.698200 0
M  V30 16 H 72.780600 57.096100 40.554700 0
M  V30 17 H 74.936500 57.178500 43.096900 0
M  V30 18 R 73.606800 53.549100 41.866300 0
M  V30 END ATOM
M  V30 BEGIN BOND
M  V30 1 1 2 1
M  V30 2 1 3 2
M  V30 3 1 4 2
M  V30 4 1 5 4
M  V30 5 1 6 4
M  V30 6 1 7 1
M  V30 7 1 8 1
M  V30 8 1 2 9 CFG=3
M  V30 9 1 10 4
M  V30 10 1 11 5
M  V30 11 1 12 5
M  V30 12 1 13 5
M  V30 13 1 14 6
M  V30 14 1 15 6
M  V30 15 1 16 6
M  V30 16 1 17 3
M  V30 17 1 18 1
M  V30 END BOND
M  V30 END CTAB
M  END
$$$$
R-group 821 (25253-1)
     RDKit          3D

  0  0  0  0  0  0  0  0  0  0999 V3000
M  V30 BEGIN CTAB
M  V30 COUNTS 14 13 0 0 1
M  V30 BEGIN ATOM
M  V30 1 C 73.686900 54.749700 42.366200 0
M  V30 2 C 74.584800 55.532900 41.394200 0 CFG=1
M  V30 3 C 73.871100 56.001000 40.091900 0
M  V30 4 C 75.111000 56.763200 42.108000 0
M  V30 5 F 76.068100 57.259000 41.324200 0
M  V30 6 F 75.675200 56.453900 43.267500 0
M  V30 7 F 74.081000 57.605100 42.308400 0
M  V30 8 H 74.070700 54.867400 43.376600 0
M  V30 9 H 72.738500 55.248000 42.446000 0
M  V30 10 H 75.462000 54.928000 41.163600 0
M  V30 11 H 72.996800 56.614400 40.310000 0
M  V30 12 H 74.537100 56.602200 39.475900 0
M  V30 13 H 73.516400 55.203900 39.448300 0
M  V30 14 R 73.538700 53.238100 42.120400 0
M  V30 END ATOM
M  V30 BEGIN BOND
M  V30 1 1 2 1
M  V30 2 1 3 2
M  V30 3 1 4 2
M  V30 4 1 5 4
M  V30 5 1 6 4
M  V30 6 1 7 4
M  V30 7 1 8 1
M  V30 8 1 9 1
M  V30 9 1 2 10 CFG=3
M  V30 10 1 11 3
M  V30 11 1 12 3
M  V30 12 1 13 3
M  V30 13 1 14 1
M  V30 END BOND
M  V30 END CTAB
M  END
$$$$
R-group 822 (2573-2)
     RDKit          3D

  0  0  0  0  0  0  0  0  0  0999 V3000
M  V30 BEGIN CTAB
M  V30 COUNTS 15 15 0 0 1
M  V30 BEGIN ATOM
M  V30 1 C 73.141600 54.600900 41.963500 0
M  V30 2 N 74.249500 55.502400 41.711700 0
M  V30 3 C 74.454100 56.145400 40.504100 0
M  V30 4 C 75.608400 56.858000 40.643600 0
M  V30 5 N 76.071900 56.772700 41.936800 0
M  V30 6 C 75.243900 55.925000 42.524000 0
M  V30 7 C 75.477500 55.460600 43.919000 0
M  V30 8 H 72.363100 54.857500 41.253800 0
M  V30 9 H 72.707900 54.792700 42.924900 0
M  V30 10 H 73.796700 56.035300 39.654900 0
M  V30 11 H 76.107100 57.492200 39.928300 0
M  V30 12 H 76.072000 56.196900 44.462900 0
M  V30 13 H 74.541800 55.258000 44.439900 0
M  V30 14 H 76.071900 54.557000 43.906900 0
M  V30 15 R 73.420600 53.123900 41.683400 0
M  V30 END ATOM
M  V30 BEGIN BOND
M  V30 1 1 2 1
M  V30 2 1 3 2
M  V30 3 2 4 3
M  V30 4 1 5 4
M  V30 5 1 6 2
M  V30 6 2 6 5
M  V30 7 1 7 6
M  V30 8 1 8 1
M  V30 9 1 9 1
M  V30 10 1 10 3
M  V30 11 1 11 4
M  V30 12 1 12 7
M  V30 13 1 13 7
M  V30 14 1 14 7
M  V30 15 1 15 1
M  V30 END BOND
M  V30 END CTAB
M  END
$$$$
R-group 823 (5603-1)
     RDKit          3D

  0  0  0  0  0  0  0  0  0  0999 V3000
M  V30 BEGIN CTAB
M  V30 COUNTS 13 13 0 0 1
M  V30 BEGIN ATOM
M  V30 1 C 72.523500 58.745300 41.386600 0
M  V30 2 O 73.101600 57.662500 40.659500 0
M  V30 3 C 73.769600 56.772900 41.415100 0
M  V30 4 C 74.557500 56.858000 42.524200 0
M  V30 5 C 74.784300 55.520300 42.923600 0
M  V30 6 C 74.051600 54.752200 42.061800 0
M  V30 7 O 73.534300 55.505000 41.062500 0
M  V30 8 H 72.072300 59.461600 40.700500 0
M  V30 9 H 71.754300 58.457900 42.099200 0
M  V30 10 H 73.273000 59.258100 41.974700 0
M  V30 11 H 74.872500 57.749200 43.037100 0
M  V30 12 H 75.319300 55.176700 43.796500 0
M  V30 13 R 73.658000 53.321600 42.010800 0
M  V30 END ATOM
M  V30 BEGIN BOND
M  V30 1 1 2 1
M  V30 2 1 3 2
M  V30 3 2 4 3
M  V30 4 1 5 4
M  V30 5 2 6 5
M  V30 6 1 7 3
M  V30 7 1 7 6
M  V30 8 1 8 1
M  V30 9 1 9 1
M  V30 10 1 10 1
M  V30 11 1 11 4
M  V30 12 1 12 5
M  V30 13 1 13 6
M  V30 END BOND
M  V30 END CTAB
M  END
$$$$
R-group 824 (7769-1)
     RDKit          3D

  0  0  0  0  0  0  0  0  0  0999 V3000
M  V30 BEGIN CTAB
M  V30 COUNTS 14 14 0 0 1
M  V30 BEGIN ATOM
M  V30 1 O 73.949200 54.880600 41.724600 0
M  V30 2 C 73.923600 55.673800 42.892000 0 CFG=2
M  V30 3 C 74.252100 57.116000 42.567300 0
M  V30 4 C 75.759000 57.182900 42.771700 0
M  V30 5 O 76.072200 56.222300 43.724700 0
M  V30 6 C 75.082100 55.260900 43.808100 0
M  V30 7 H 72.927400 55.641500 43.326500 0
M  V30 8 H 73.938800 57.425700 41.568000 0
M  V30 9 H 73.766500 57.768500 43.292900 0
M  V30 10 H 76.336300 57.043300 41.856100 0
M  V30 11 H 76.078800 58.044100 43.324200 0
M  V30 12 H 74.797700 55.065500 44.842200 0
M  V30 13 H 75.672300 54.448200 43.421300 0
M  V30 14 R 73.462100 53.539400 41.841900 0
M  V30 END ATOM
M  V30 BEGIN BOND
M  V30 1 1 2 1
M  V30 2 1 3 2
M  V30 3 1 4 3
M  V30 4 1 5 4
M  V30 5 1 6 2
M  V30 6 1 6 5
M  V30 7 1 2 7 CFG=1
M  V30 8 1 8 3
M  V30 9 1 9 3
M  V30 10 1 10 4
M  V30 11 1 11 4
M  V30 12 1 12 6
M  V30 13 1 13 6
M  V30 14 1 14 1
M  V30 END BOND
M  V30 END CTAB
M  END
$$$$
R-group 825 (19100-1)
     RDKit          3D

  0  0  0  0  0  0  0  0  0  0999 V3000
M  V30 BEGIN CTAB
M  V30 COUNTS 11 11 0 0 1
M  V30 BEGIN ATOM
M  V30 1 C 74.138500 54.798700 41.931000 0
M  V30 2 C 74.017200 55.791500 40.922800 0
M  V30 3 N 74.673600 56.857500 41.273500 0
M  V30 4 N 75.168000 56.499600 42.474600 0
M  V30 5 C 75.833000 57.425400 43.324000 0
M  V30 6 N 74.859000 55.276200 42.907600 0
M  V30 7 H 73.513600 55.741500 39.964900 0
M  V30 8 H 76.379800 56.917800 44.122900 0
M  V30 9 H 76.484300 58.054200 42.737600 0
M  V30 10 H 75.053100 58.048500 43.725400 0
M  V30 11 R 73.632900 53.390600 41.925700 0
M  V30 END ATOM
M  V30 BEGIN BOND
M  V30 1 1 2 1
M  V30 2 2 3 2
M  V30 3 1 4 3
M  V30 4 1 5 4
M  V30 5 2 6 1
M  V30 6 1 6 4
M  V30 7 1 7 2
M  V30 8 1 8 5
M  V30 9 1 9 5
M  V30 10 1 10 5
M  V30 11 1 11 1
M  V30 END BOND
M  V30 END CTAB
M  END
$$$$
R-group 826 (11011-4)
     RDKit          3D

  0  0  0  0  0  0  0  0  0  0999 V3000
M  V30 BEGIN CTAB
M  V30 COUNTS 21 22 0 0 1
M  V30 BEGIN ATOM
M  V30 1 C 73.557000 54.879700 41.488100 0 CFG=2
M  V30 2 C 72.716600 55.545000 40.355400 0 CFG=1
M  V30 3 C 72.563500 57.052200 40.613500 0
M  V30 4 C 73.898600 57.547900 40.198900 0
M  V30 5 C 74.678300 56.276500 39.899500 0 CFG=2
M  V30 6 O 73.637000 55.556500 39.276300 0
M  V30 7 C 74.967500 55.365500 41.097800 0 CFG=1
M  V30 8 C 75.819000 55.973000 42.219000 0
M  V30 9 O 75.093000 56.911200 42.924700 0
M  V30 10 H 73.248300 55.299000 42.445900 0
M  V30 11 H 71.759600 55.074600 40.125400 0
M  V30 12 H 71.733000 57.571800 40.134500 0
M  V30 13 H 72.472300 57.258600 41.679500 0
M  V30 14 H 74.303700 58.058000 41.053700 0
M  V30 15 H 73.809000 58.191700 39.324600 0
M  V30 16 H 75.570800 56.458600 39.324700 0
M  V30 17 H 75.563700 54.546800 40.713000 0
M  V30 18 H 76.071800 55.256700 42.985500 0
M  V30 19 H 76.737600 56.416000 41.833400 0
M  V30 20 H 74.349600 56.481700 43.324900 0
M  V30 21 R 73.407000 53.344400 41.648600 0
M  V30 END ATOM
M  V30 BEGIN BOND
M  V30 1 1 2 1
M  V30 2 1 3 2
M  V30 3 1 4 3
M  V30 4 1 5 4
M  V30 5 1 6 2
M  V30 6 1 6 5
M  V30 7 1 7 1
M  V30 8 1 7 5
M  V30 9 1 8 7
M  V30 10 1 9 8
M  V30 11 1 1 10 CFG=1
M  V30 12 1 2 11 CFG=3
M  V30 13 1 12 3
M  V30 14 1 13 3
M  V30 15 1 14 4
M  V30 16 1 15 4
M  V30 17 1 5 16 CFG=3
M  V30 18 1 7 17 CFG=3
M  V30 19 1 18 8
M  V30 20 1 19 8
M  V30 21 1 20 9
M  V30 22 1 21 1
M  V30 END BOND
M  V30 END CTAB
M  END
$$$$
R-group 827 (22478-2)
     RDKit          3D

  0  0  0  0  0  0  0  0  0  0999 V3000
M  V30 BEGIN CTAB
M  V30 COUNTS 21 20 0 0 1
M  V30 BEGIN ATOM
M  V30 1 C 73.795300 55.249600 41.841200 0 CFG=1
M  V30 2 C 73.272500 55.943600 43.105700 0
M  V30 3 O 73.272200 57.344500 42.928200 0
M  V30 4 C 75.230700 55.720600 41.515000 0
M  V30 5 C 75.315300 57.069900 40.768100 0
M  V30 6 C 74.563300 57.074600 39.429500 0
M  V30 7 C 76.767100 57.486500 40.605400 0
M  V30 8 H 73.129100 55.597000 41.058900 0
M  V30 9 H 72.243500 55.652000 43.309300 0
M  V30 10 H 73.884200 55.658100 43.960800 0
M  V30 11 H 75.747700 54.980900 40.913600 0
M  V30 12 H 75.809100 55.773800 42.439800 0
M  V30 13 H 74.886500 57.869500 41.350400 0
M  V30 14 H 74.871500 56.267700 38.772400 0
M  V30 15 H 74.748900 58.011400 38.923100 0
M  V30 16 H 73.482600 57.016700 39.544100 0
M  V30 17 H 77.268900 56.666600 40.124900 0
M  V30 18 H 76.874900 58.382400 39.995500 0
M  V30 19 H 77.255800 57.658000 41.564000 0
M  V30 20 H 74.169100 57.628800 42.840800 0
M  V30 21 R 73.600600 53.701400 41.859600 0
M  V30 END ATOM
M  V30 BEGIN BOND
M  V30 1 1 2 1
M  V30 2 1 3 2
M  V30 3 1 4 1
M  V30 4 1 5 4
M  V30 5 1 6 5
M  V30 6 1 7 5
M  V30 7 1 1 8 CFG=3
M  V30 8 1 9 2
M  V30 9 1 10 2
M  V30 10 1 11 4
M  V30 11 1 12 4
M  V30 12 1 13 5
M  V30 13 1 14 6
M  V30 14 1 15 6
M  V30 15 1 16 6
M  V30 16 1 17 7
M  V30 17 1 18 7
M  V30 18 1 19 7
M  V30 19 1 20 3
M  V30 20 1 21 1
M  V30 END BOND
M  V30 END CTAB
M  END
$$$$
R-group 828 (2313-1)
     RDKit          3D

  0  0  0  0  0  0  0  0  0  0999 V3000
M  V30 BEGIN CTAB
M  V30 COUNTS 17 17 0 0 1
M  V30 BEGIN ATOM
M  V30 1 C 73.419900 54.664800 41.298700 0
M  V30 2 C 73.384200 55.612500 42.485200 0 CFG=2
M  V30 3 C 73.418200 57.068400 42.020800 0
M  V30 4 O 74.694000 57.258100 41.445000 0
M  V30 5 C 75.705000 57.216200 42.439100 0
M  V30 6 C 75.767000 55.765900 42.851900 0
M  V30 7 O 74.497400 55.374400 43.324100 0
M  V30 8 H 74.302300 54.883500 40.703800 0
M  V30 9 H 72.575800 54.920000 40.659900 0
M  V30 10 H 72.474800 55.435300 43.049900 0
M  V30 11 H 72.654100 57.266400 41.269800 0
M  V30 12 H 73.245700 57.759300 42.845600 0
M  V30 13 H 76.655100 57.553600 42.023200 0
M  V30 14 H 75.480400 57.821300 43.324800 0
M  V30 15 H 76.071800 55.143500 42.016900 0
M  V30 16 H 76.469900 55.659300 43.675800 0
M  V30 17 R 73.341000 53.165100 41.629900 0
M  V30 END ATOM
M  V30 BEGIN BOND
M  V30 1 1 2 1
M  V30 2 1 3 2
M  V30 3 1 4 3
M  V30 4 1 5 4
M  V30 5 1 6 5
M  V30 6 1 7 2
M  V30 7 1 7 6
M  V30 8 1 8 1
M  V30 9 1 9 1
M  V30 10 1 2 10 CFG=1
M  V30 11 1 11 3
M  V30 12 1 12 3
M  V30 13 1 13 5
M  V30 14 1 14 5
M  V30 15 1 15 6
M  V30 16 1 16 6
M  V30 17 1 17 1
M  V30 END BOND
M  V30 END CTAB
M  END
$$$$
R-group 829 (16161-3)
     RDKit          3D

  0  0  0  0  0  0  0  0  0  0999 V3000
M  V30 BEGIN CTAB
M  V30 COUNTS 19 19 0 0 1
M  V30 BEGIN ATOM
M  V30 1 O 73.672900 54.660600 42.317100 0
M  V30 2 C 74.932800 55.212700 41.976800 0 CFG=2
M  V30 3 C 75.416200 55.989600 43.192400 0
M  V30 4 C 74.604000 57.264400 43.099500 0
M  V30 5 C 74.551300 57.559600 41.595800 0 CFG=2
M  V30 6 C 73.272300 58.294700 41.194200 0
M  V30 7 C 74.689300 56.226100 40.872400 0
M  V30 8 H 75.673900 54.489200 41.673500 0
M  V30 9 H 75.272200 55.451500 44.131800 0
M  V30 10 H 76.472700 56.219100 43.088200 0
M  V30 11 H 73.599100 57.080100 43.484800 0
M  V30 12 H 75.049300 58.057500 43.696500 0
M  V30 13 H 75.474400 58.055500 41.324800 0
M  V30 14 H 72.422600 57.669300 41.436300 0
M  V30 15 H 73.144600 59.239100 41.724900 0
M  V30 16 H 73.249200 58.476000 40.120900 0
M  V30 17 H 75.543300 56.261100 40.193300 0
M  V30 18 H 73.812400 55.977500 40.270900 0
M  V30 19 R 73.485400 53.291600 42.021500 0
M  V30 END ATOM
M  V30 BEGIN BOND
M  V30 1 1 2 1
M  V30 2 1 3 2
M  V30 3 1 4 3
M  V30 4 1 5 4
M  V30 5 1 6 5
M  V30 6 1 7 2
M  V30 7 1 7 5
M  V30 8 1 2 8 CFG=3
M  V30 9 1 9 3
M  V30 10 1 10 3
M  V30 11 1 11 4
M  V30 12 1 12 4
M  V30 13 1 5 13 CFG=3
M  V30 14 1 14 6
M  V30 15 1 15 6
M  V30 16 1 16 6
M  V30 17 1 17 7
M  V30 18 1 18 7
M  V30 19 1 19 1
M  V30 END BOND
M  V30 END CTAB
M  END
$$$$
R-group 830 (18149-1)
     RDKit          3D

  0  0  0  0  0  0  0  0  0  0999 V3000
M  V30 BEGIN CTAB
M  V30 COUNTS 14 14 0 0 1
M  V30 BEGIN ATOM
M  V30 1 O 73.725900 54.752800 42.317300 0
M  V30 2 C 75.030500 55.313300 42.240600 0
M  V30 3 C 74.823900 56.772600 41.909700 0
M  V30 4 C 73.829900 57.158100 40.817500 0
M  V30 5 O 73.134700 58.058100 41.710000 0
M  V30 6 C 73.935800 57.605600 42.823600 0
M  V30 7 H 75.534700 55.197900 43.201000 0
M  V30 8 H 75.667400 54.849800 41.492900 0
M  V30 9 H 75.771400 57.285300 41.745500 0
M  V30 10 H 74.269600 57.655800 39.954400 0
M  V30 11 H 73.182100 56.347000 40.488100 0
M  V30 12 H 73.343400 57.022100 43.531200 0
M  V30 13 H 74.470300 58.410500 43.324800 0
M  V30 14 R 73.545600 53.381200 42.011100 0
M  V30 END ATOM
M  V30 BEGIN BOND
M  V30 1 1 2 1
M  V30 2 1 3 2
M  V30 3 1 4 3
M  V30 4 1 5 4
M  V30 5 1 6 3
M  V30 6 1 6 5
M  V30 7 1 7 2
M  V30 8 1 8 2
M  V30 9 1 9 3
M  V30 10 1 10 4
M  V30 11 1 11 4
M  V30 12 1 12 6
M  V30 13 1 13 6
M  V30 14 1 14 1
M  V30 END BOND
M  V30 END CTAB
M  END
$$$$
R-group 831 (13976-1)
     RDKit          3D

  0  0  0  0  0  0  0  0  0  0999 V3000
M  V30 BEGIN CTAB
M  V30 COUNTS 16 17 0 0 1
M  V30 BEGIN ATOM
M  V30 1 C 74.006700 54.600900 41.969400 0
M  V30 2 N 74.872800 55.089800 42.926600 0
M  V30 3 N 75.025400 56.413600 42.924200 0
M  V30 4 C 74.104800 56.703600 42.055600 0
M  V30 5 C 73.672300 55.690600 41.245500 0
M  V30 6 C 72.838100 56.171200 40.120000 0
M  V30 7 C 72.807100 57.708500 40.411500 0
M  V30 8 C 73.549200 57.977300 41.745000 0
M  V30 9 H 73.296300 55.969900 39.150800 0
M  V30 10 H 71.840000 55.737400 40.112000 0
M  V30 11 H 71.804100 58.095500 40.523200 0
M  V30 12 H 73.272700 58.259900 39.593800 0
M  V30 13 H 72.921600 58.369900 42.547400 0
M  V30 14 H 74.472500 58.458800 41.697600 0
M  V30 15 H 75.371400 54.508400 43.581700 0
M  V30 16 R 73.604000 53.187300 41.895500 0
M  V30 END ATOM
M  V30 BEGIN BOND
M  V30 1 1 2 1
M  V30 2 1 3 2
M  V30 3 2 4 3
M  V30 4 2 5 1
M  V30 5 1 5 4
M  V30 6 1 6 5
M  V30 7 1 7 6
M  V30 8 1 8 4
M  V30 9 1 8 7
M  V30 10 1 9 6
M  V30 11 1 10 6
M  V30 12 1 11 7
M  V30 13 1 12 7
M  V30 14 1 13 8
M  V30 15 1 14 8
M  V30 16 1 15 2
M  V30 17 1 16 1
M  V30 END BOND
M  V30 END CTAB
M  END
$$$$
R-group 832 (17645-1)
     RDKit          3D

  0  0  0  0  0  0  0  0  0  0999 V3000
M  V30 BEGIN CTAB
M  V30 COUNTS 16 15 0 0 1
M  V30 BEGIN ATOM
M  V30 1 C 74.016700 56.886600 39.584300 0
M  V30 2 O 73.959900 57.256700 40.953500 0
M  V30 3 C 75.093800 56.944100 41.765900 0 CFG=2
M  V30 4 C 76.450700 57.405700 41.185400 0
M  V30 5 C 75.124600 55.446800 42.080100 0
M  V30 6 O 73.801700 54.949600 42.237500 0
M  V30 7 H 73.052000 57.085400 39.117400 0
M  V30 8 H 74.761500 57.469400 39.045400 0
M  V30 9 H 74.235100 55.829700 39.455600 0
M  V30 10 H 74.917700 57.468300 42.705900 0
M  V30 11 H 77.254300 57.256500 41.903500 0
M  V30 12 H 76.715900 56.845700 40.290000 0
M  V30 13 H 76.472200 58.458400 40.924600 0
M  V30 14 H 75.672800 55.287100 43.006900 0
M  V30 15 H 75.670700 54.924800 41.301300 0
M  V30 16 R 73.605800 53.542200 42.106100 0
M  V30 END ATOM
M  V30 BEGIN BOND
M  V30 1 1 2 1
M  V30 2 1 3 2
M  V30 3 1 4 3
M  V30 4 1 5 3
M  V30 5 1 6 5
M  V30 6 1 7 1
M  V30 7 1 8 1
M  V30 8 1 9 1
M  V30 9 1 3 10 CFG=1
M  V30 10 1 11 4
M  V30 11 1 12 4
M  V30 12 1 13 4
M  V30 13 1 14 5
M  V30 14 1 15 5
M  V30 15 1 16 6
M  V30 END BOND
M  V30 END CTAB
M  END
$$$$
R-group 833 (28055-2)
     RDKit          3D

  0  0  0  0  0  0  0  0  0  0999 V3000
M  V30 BEGIN CTAB
M  V30 COUNTS 16 16 0 0 1
M  V30 BEGIN ATOM
M  V30 1 C 73.568100 55.046000 41.491700 0 CFG=2
M  V30 2 C 72.697900 55.809600 40.452400 0
M  V30 3 C 73.559500 56.164100 39.267100 0
M  V30 4 C 74.830700 56.521700 39.984900 0
M  V30 5 C 74.972300 55.554100 41.154700 0 CFG=1
M  V30 6 C 75.532100 56.273000 42.282800 0
M  V30 7 N 75.966800 56.849100 43.166800 0
M  V30 8 H 73.293000 55.434700 42.473800 0
M  V30 9 H 72.472700 56.777900 40.919900 0
M  V30 10 H 71.770500 55.346000 40.108100 0
M  V30 11 H 73.154700 57.000900 38.701200 0
M  V30 12 H 73.683700 55.325200 38.589300 0
M  V30 13 H 75.675400 56.472100 39.345600 0
M  V30 14 H 74.749800 57.539000 40.356400 0
M  V30 15 H 75.668900 54.751700 40.916000 0
M  V30 16 R 73.433200 53.496200 41.618800 0
M  V30 END ATOM
M  V30 BEGIN BOND
M  V30 1 1 2 1
M  V30 2 1 3 2
M  V30 3 1 4 3
M  V30 4 1 5 1
M  V30 5 1 5 4
M  V30 6 1 6 5
M  V30 7 3 7 6
M  V30 8 1 1 8 CFG=1
M  V30 9 1 9 2
M  V30 10 1 10 2
M  V30 11 1 11 3
M  V30 12 1 12 3
M  V30 13 1 13 4
M  V30 14 1 14 4
M  V30 15 1 5 15 CFG=3
M  V30 16 1 16 1
M  V30 END BOND
M  V30 END CTAB
M  END
$$$$
R-group 834 (10908-2)
     RDKit          3D

  0  0  0  0  0  0  0  0  0  0999 V3000
M  V30 BEGIN CTAB
M  V30 COUNTS 16 16 0 0 1
M  V30 BEGIN ATOM
M  V30 1 C 72.888400 54.343300 42.156500 0
M  V30 2 C 74.016600 55.237800 42.656800 0 CFG=1
M  V30 3 C 75.224600 55.399100 41.727400 0
M  V30 4 C 75.516400 56.879000 41.772000 0
M  V30 5 O 74.797300 57.258000 42.922000 0
M  V30 6 C 73.536700 56.642600 42.916000 0
M  V30 7 H 72.436500 54.855800 41.313400 0
M  V30 8 H 72.115500 54.271000 42.924700 0
M  V30 9 H 74.388500 54.903300 43.623100 0
M  V30 10 H 76.068700 54.842400 42.118800 0
M  V30 11 H 75.066200 55.092100 40.697600 0
M  V30 12 H 76.580000 57.110100 41.861000 0
M  V30 13 H 75.114400 57.382400 40.892100 0
M  V30 14 H 72.878100 57.036300 42.134700 0
M  V30 15 H 73.024100 56.739500 43.874300 0
M  V30 16 R 73.292800 52.940500 41.687100 0
M  V30 END ATOM
M  V30 BEGIN BOND
M  V30 1 1 2 1
M  V30 2 1 3 2
M  V30 3 1 4 3
M  V30 4 1 5 4
M  V30 5 1 6 2
M  V30 6 1 6 5
M  V30 7 1 7 1
M  V30 8 1 8 1
M  V30 9 1 2 9 CFG=1
M  V30 10 1 10 3
M  V30 11 1 11 3
M  V30 12 1 12 4
M  V30 13 1 13 4
M  V30 14 1 14 6
M  V30 15 1 15 6
M  V30 16 1 16 1
M  V30 END BOND
M  V30 END CTAB
M  END
$$$$
R-group 835 (19388-2)
     RDKit          3D

  0  0  0  0  0  0  0  0  0  0999 V3000
M  V30 BEGIN CTAB
M  V30 COUNTS 16 16 0 0 1
M  V30 BEGIN ATOM
M  V30 1 C 73.755900 54.902300 42.181000 0 CFG=1
M  V30 2 C 75.090100 55.523400 42.636700 0
M  V30 3 C 74.594900 56.840300 42.031700 0 CFG=2
M  V30 4 C 73.797900 57.769300 42.927400 0
M  V30 5 O 72.872200 58.458000 42.124400 0
M  V30 6 C 73.823300 55.950700 41.054400 0
M  V30 7 H 72.979300 55.195100 42.891400 0
M  V30 8 H 75.250300 55.539300 43.715200 0
M  V30 9 H 75.956800 55.134200 42.102600 0
M  V30 10 H 75.394400 57.368500 41.509700 0
M  V30 11 H 73.258300 57.238400 43.712100 0
M  V30 12 H 74.471900 58.457900 43.426200 0
M  V30 13 H 74.441500 55.689200 40.198500 0
M  V30 14 H 72.872100 56.336800 40.707100 0
M  V30 15 H 72.296600 57.824800 41.724100 0
M  V30 16 R 73.585800 53.406700 41.901400 0
M  V30 END ATOM
M  V30 BEGIN BOND
M  V30 1 1 2 1
M  V30 2 1 3 2
M  V30 3 1 4 3
M  V30 4 1 5 4
M  V30 5 1 6 1
M  V30 6 1 6 3
M  V30 7 1 1 7 CFG=1
M  V30 8 1 8 2
M  V30 9 1 9 2
M  V30 10 1 3 10 CFG=3
M  V30 11 1 11 4
M  V30 12 1 12 4
M  V30 13 1 13 6
M  V30 14 1 14 6
M  V30 15 1 15 5
M  V30 16 1 16 1
M  V30 END BOND
M  V30 END CTAB
M  END
$$$$
R-group 836 (1360-1)
     RDKit          3D

  0  0  0  0  0  0  0  0  0  0999 V3000
M  V30 BEGIN CTAB
M  V30 COUNTS 11 10 0 0 1
M  V30 BEGIN ATOM
M  V30 1 C 74.093600 55.377600 41.837500 0
M  V30 2 C 73.537600 56.049200 43.104100 0
M  V30 3 C 75.580500 55.730200 41.744000 0
M  V30 4 F 73.545900 55.997100 40.791800 0
M  V30 5 H 74.051300 55.657700 43.981800 0
M  V30 6 H 73.687400 57.129100 43.086100 0
M  V30 7 H 72.473700 55.865500 43.245500 0
M  V30 8 H 76.072200 55.445400 42.667100 0
M  V30 9 H 76.072300 55.257600 40.899900 0
M  V30 10 H 75.721900 56.806100 41.634200 0
M  V30 11 R 73.741700 53.842100 41.788600 0
M  V30 END ATOM
M  V30 BEGIN BOND
M  V30 1 1 2 1
M  V30 2 1 3 1
M  V30 3 1 4 1
M  V30 4 1 5 2
M  V30 5 1 6 2
M  V30 6 1 7 2
M  V30 7 1 8 3
M  V30 8 1 9 3
M  V30 9 1 10 3
M  V30 10 1 11 1
M  V30 END BOND
M  V30 END CTAB
M  END
$$$$
R-group 837 (7322-1)
     RDKit          3D

  0  0  0  0  0  0  0  0  0  0999 V3000
M  V30 BEGIN CTAB
M  V30 COUNTS 12 12 0 0 1
M  V30 BEGIN ATOM
M  V30 1 C 74.063800 54.669900 41.793000 0
M  V30 2 C 73.631100 55.667200 42.575600 0
M  V30 3 C 74.116500 56.924800 42.244500 0
M  V30 4 C 73.569100 58.124200 42.877600 0
M  V30 5 C 75.112100 56.858100 41.321600 0
M  V30 6 S 75.271700 55.261800 40.732000 0
M  V30 7 H 72.866600 55.553600 43.324300 0
M  V30 8 H 72.588500 57.948200 43.334600 0
M  V30 9 H 74.261200 58.455700 43.651600 0
M  V30 10 H 73.443700 58.900400 42.124600 0
M  V30 11 H 75.715100 57.654900 40.910700 0
M  V30 12 R 73.628500 53.265500 41.875800 0
M  V30 END ATOM
M  V30 BEGIN BOND
M  V30 1 2 2 1
M  V30 2 1 3 2
M  V30 3 1 4 3
M  V30 4 2 5 3
M  V30 5 1 6 1
M  V30 6 1 6 5
M  V30 7 1 7 2
M  V30 8 1 8 4
M  V30 9 1 9 4
M  V30 10 1 10 4
M  V30 11 1 11 5
M  V30 12 1 12 1
M  V30 END BOND
M  V30 END CTAB
M  END
$$$$
R-group 838 (24559-1)
     RDKit          3D

  0  0  0  0  0  0  0  0  0  0999 V3000
M  V30 BEGIN CTAB
M  V30 COUNTS 17 17 0 0 1
M  V30 BEGIN ATOM
M  V30 1 O 73.473900 54.558800 42.129400 0
M  V30 2 C 74.752100 55.155800 42.069100 0
M  V30 3 C 74.544300 56.539000 41.528100 0
M  V30 4 O 74.233400 57.258900 42.687300 0
M  V30 5 C 75.674200 57.082600 40.638200 0
M  V30 6 C 74.711300 57.059600 39.442700 0
M  V30 7 C 73.549300 56.783900 40.382100 0
M  V30 8 H 75.220300 55.150100 43.052300 0
M  V30 9 H 75.441300 54.626100 41.415800 0
M  V30 10 H 76.070400 58.057600 40.923100 0
M  V30 11 H 76.499000 56.379300 40.510100 0
M  V30 12 H 74.615300 58.003200 38.924700 0
M  V30 13 H 74.871800 56.234400 38.749600 0
M  V30 14 H 72.953000 55.920900 40.083100 0
M  V30 15 H 72.919300 57.662700 40.532500 0
M  V30 16 H 74.019800 58.138100 42.421500 0
M  V30 17 R 73.414700 53.162700 41.985900 0
M  V30 END ATOM
M  V30 BEGIN BOND
M  V30 1 1 2 1
M  V30 2 1 3 2
M  V30 3 1 4 3
M  V30 4 1 5 3
M  V30 5 1 6 5
M  V30 6 1 7 3
M  V30 7 1 7 6
M  V30 8 1 8 2
M  V30 9 1 9 2
M  V30 10 1 10 5
M  V30 11 1 11 5
M  V30 12 1 12 6
M  V30 13 1 13 6
M  V30 14 1 14 7
M  V30 15 1 15 7
M  V30 16 1 16 4
M  V30 17 1 17 1
M  V30 END BOND
M  V30 END CTAB
M  END
$$$$
R-group 839 (24725-1)
     RDKit          3D

  0  0  0  0  0  0  0  0  0  0999 V3000
M  V30 BEGIN CTAB
M  V30 COUNTS 14 14 0 0 1
M  V30 BEGIN ATOM
M  V30 1 C 74.034300 54.603500 41.859200 0
M  V30 2 N 74.858300 55.146900 42.696400 0
M  V30 3 C 75.091700 56.507900 42.600500 0
M  V30 4 C 76.041600 57.127900 43.572400 0
M  V30 5 C 74.422100 57.258100 41.710000 0
M  V30 6 C 73.673600 56.627900 40.644900 0
M  V30 7 O 73.271300 57.234400 39.673100 0
M  V30 8 N 73.518900 55.304000 40.771900 0
M  V30 9 H 75.572900 57.934900 44.124700 0
M  V30 10 H 76.404500 56.363600 44.256700 0
M  V30 11 H 76.871800 57.580700 43.026400 0
M  V30 12 H 74.471800 58.327800 41.714300 0
M  V30 13 H 73.019400 54.805200 40.049500 0
M  V30 14 R 73.575200 53.164800 41.932300 0
M  V30 END ATOM
M  V30 BEGIN BOND
M  V30 1 2 2 1
M  V30 2 1 3 2
M  V30 3 1 4 3
M  V30 4 2 5 3
M  V30 5 1 6 5
M  V30 6 2 7 6
M  V30 7 1 8 1
M  V30 8 1 8 6
M  V30 9 1 9 4
M  V30 10 1 10 4
M  V30 11 1 11 4
M  V30 12 1 12 5
M  V30 13 1 13 8
M  V30 14 1 14 1
M  V30 END BOND
M  V30 END CTAB
M  END
$$$$
R-group 840 (1943-1)
     RDKit          3D

  0  0  0  0  0  0  0  0  0  0999 V3000
M  V30 BEGIN CTAB
M  V30 COUNTS 11 10 0 0 1
M  V30 BEGIN ATOM
M  V30 1 C 73.747500 55.212400 42.287900 0
M  V30 2 C 75.097600 55.943300 42.145000 0
M  V30 3 C 75.009200 57.220200 41.298100 0
M  V30 4 F 74.743400 56.929800 40.025000 0
M  V30 5 F 74.074700 58.049800 41.766000 0
M  V30 6 H 72.973800 55.764200 41.758600 0
M  V30 7 H 73.440300 55.260200 43.324500 0
M  V30 8 H 75.467500 56.198600 43.139900 0
M  V30 9 H 75.852400 55.286700 41.709500 0
M  V30 10 H 75.962800 57.748800 41.312300 0
M  V30 11 R 73.721700 53.748800 41.796400 0
M  V30 END ATOM
M  V30 BEGIN BOND
M  V30 1 1 2 1
M  V30 2 1 3 2
M  V30 3 1 4 3
M  V30 4 1 5 3
M  V30 5 1 6 1
M  V30 6 1 7 1
M  V30 7 1 8 2
M  V30 8 1 9 2
M  V30 9 1 10 3
M  V30 10 1 11 1
M  V30 END BOND
M  V30 END CTAB
M  END
$$$$
R-group 841 (23563-1)
     RDKit          3D

  0  0  0  0  0  0  0  0  0  0999 V3000
M  V30 BEGIN CTAB
M  V30 COUNTS 14 14 0 0 1
M  V30 BEGIN ATOM
M  V30 1 O 73.682000 54.824100 42.203300 0
M  V30 2 C 74.988500 55.365100 42.073500 0
M  V30 3 C 74.849800 56.700900 41.387100 0
M  V30 4 F 76.060200 57.258000 41.326900 0
M  V30 5 C 74.193600 56.812000 40.015600 0
M  V30 6 O 73.128700 57.648700 40.525300 0
M  V30 7 C 73.742200 57.655600 41.835200 0
M  V30 8 H 75.422600 55.478800 43.068000 0
M  V30 9 H 75.671500 54.736200 41.509900 0
M  V30 10 H 74.812600 57.338700 39.294100 0
M  V30 11 H 73.821200 55.873500 39.608600 0
M  V30 12 H 73.078200 57.243100 42.595900 0
M  V30 13 H 74.072300 58.643400 42.124300 0
M  V30 14 R 73.515400 53.428700 42.025500 0
M  V30 END ATOM
M  V30 BEGIN BOND
M  V30 1 1 2 1
M  V30 2 1 3 2
M  V30 3 1 4 3
M  V30 4 1 5 3
M  V30 5 1 6 5
M  V30 6 1 7 3
M  V30 7 1 7 6
M  V30 8 1 8 2
M  V30 9 1 9 2
M  V30 10 1 10 5
M  V30 11 1 11 5
M  V30 12 1 12 7
M  V30 13 1 13 7
M  V30 14 1 14 1
M  V30 END BOND
M  V30 END CTAB
M  END
$$$$
R-group 842 (11597-1)
     RDKit          3D

  0  0  0  0  0  0  0  0  0  0999 V3000
M  V30 BEGIN CTAB
M  V30 COUNTS 13 13 0 0 1
M  V30 BEGIN ATOM
M  V30 1 C 74.136900 54.821300 42.003700 0
M  V30 2 C 74.977900 55.485200 42.843200 0
M  V30 3 C 74.889900 56.857900 42.524700 0
M  V30 4 C 73.930600 57.021200 41.570100 0
M  V30 5 C 73.139000 58.199200 41.091800 0
M  V30 6 N 73.672200 55.760600 41.117200 0
M  V30 7 H 75.558900 55.054400 43.643800 0
M  V30 8 H 75.369400 57.657300 43.070800 0
M  V30 9 H 73.321400 59.065300 41.724400 0
M  V30 10 H 73.299200 58.443800 40.041900 0
M  V30 11 H 72.072200 58.023500 41.189900 0
M  V30 12 H 73.002600 55.555300 40.388900 0
M  V30 13 R 73.686600 53.404800 41.939800 0
M  V30 END ATOM
M  V30 BEGIN BOND
M  V30 1 2 2 1
M  V30 2 1 3 2
M  V30 3 2 4 3
M  V30 4 1 5 4
M  V30 5 1 6 1
M  V30 6 1 6 4
M  V30 7 1 7 2
M  V30 8 1 8 3
M  V30 9 1 9 5
M  V30 10 1 10 5
M  V30 11 1 11 5
M  V30 12 1 12 6
M  V30 13 1 13 1
M  V30 END BOND
M  V30 END CTAB
M  END
$$$$
R-group 843 (37892-2)
     RDKit          3D

  0  0  0  0  0  0  0  0  0  0999 V3000
M  V30 BEGIN CTAB
M  V30 COUNTS 22 22 0 0 1
M  V30 BEGIN ATOM
M  V30 1 C 73.247500 57.565600 43.496100 0
M  V30 2 C 74.486200 57.657800 42.643300 0
M  V30 3 C 74.813900 56.500000 41.715000 0 CFG=1
M  V30 4 O 75.700100 56.817000 40.648700 0
M  V30 5 C 76.810700 57.641500 40.931000 0
M  V30 6 C 75.187200 55.183800 42.355600 0
M  V30 7 C 73.748400 54.695500 42.112700 0 CFG=1
M  V30 8 C 73.680200 55.762200 41.007300 0
M  V30 9 H 73.099500 58.448200 44.120100 0
M  V30 10 H 72.472200 57.528600 42.768000 0
M  V30 11 H 73.200300 56.683000 44.124600 0
M  V30 12 H 75.314500 57.890300 43.324600 0
M  V30 13 H 74.243200 58.457600 41.957600 0
M  V30 14 H 77.557500 57.554800 40.142400 0
M  V30 15 H 76.472200 58.669400 40.934900 0
M  V30 16 H 77.271900 57.390800 41.883500 0
M  V30 17 H 75.480400 55.253500 43.403900 0
M  V30 18 H 75.926200 54.662000 41.752600 0
M  V30 19 H 73.100500 55.003800 42.924600 0
M  V30 20 H 73.965900 55.432300 40.010200 0
M  V30 21 H 72.792400 56.370900 40.918200 0
M  V30 22 R 73.509900 53.215400 41.875500 0
M  V30 END ATOM
M  V30 BEGIN BOND
M  V30 1 1 2 1
M  V30 2 1 3 2
M  V30 3 1 3 4 CFG=3
M  V30 4 1 5 4
M  V30 5 1 6 3
M  V30 6 1 7 6
M  V30 7 1 8 3
M  V30 8 1 8 7
M  V30 9 1 9 1
M  V30 10 1 10 1
M  V30 11 1 11 1
M  V30 12 1 12 2
M  V30 13 1 13 2
M  V30 14 1 14 5
M  V30 15 1 15 5
M  V30 16 1 16 5
M  V30 17 1 17 6
M  V30 18 1 18 6
M  V30 19 1 7 19 CFG=1
M  V30 20 1 20 8
M  V30 21 1 21 8
M  V30 22 1 22 7
M  V30 END BOND
M  V30 END CTAB
M  END
$$$$
R-group 844 (5492-1)
     RDKit          3D

  0  0  0  0  0  0  0  0  0  0999 V3000
M  V30 BEGIN CTAB
M  V30 COUNTS 13 13 0 0 1
M  V30 BEGIN ATOM
M  V30 1 C 73.380700 55.033200 42.063500 0
M  V30 2 C 74.721600 55.683900 42.319100 0
M  V30 3 O 75.533000 55.841100 41.181700 0
M  V30 4 C 74.839500 56.965400 43.076900 0
M  V30 5 C 75.405500 55.697500 43.666700 0
M  V30 6 H 72.907500 55.564600 41.237700 0
M  V30 7 H 72.746100 55.228400 42.925100 0
M  V30 8 H 75.605300 57.658000 42.766800 0
M  V30 9 H 73.919700 57.396200 43.468900 0
M  V30 10 H 74.877500 55.258000 44.511000 0
M  V30 11 H 76.486600 55.657900 43.724600 0
M  V30 12 H 75.877900 54.994800 40.942700 0
M  V30 13 R 73.384200 53.507900 41.801100 0
M  V30 END ATOM
M  V30 BEGIN BOND
M  V30 1 1 2 1
M  V30 2 1 3 2
M  V30 3 1 4 2
M  V30 4 1 5 2
M  V30 5 1 5 4
M  V30 6 1 6 1
M  V30 7 1 7 1
M  V30 8 1 8 4
M  V30 9 1 9 4
M  V30 10 1 10 5
M  V30 11 1 11 5
M  V30 12 1 12 3
M  V30 13 1 13 1
M  V30 END BOND
M  V30 END CTAB
M  END
$$$$
R-group 845 (1373-1)
     RDKit          3D

  0  0  0  0  0  0  0  0  0  0999 V3000
M  V30 BEGIN CTAB
M  V30 COUNTS 11 10 0 0 1
M  V30 BEGIN ATOM
M  V30 1 C 73.447200 54.847900 42.026400 0
M  V30 2 C 74.852300 55.457600 42.020600 0
M  V30 3 C 74.853100 56.850800 41.412100 0
M  V30 4 F 76.117200 57.257800 41.416000 0
M  V30 5 F 74.414900 56.849100 40.152700 0
M  V30 6 F 74.072300 57.643200 42.147700 0
M  V30 7 H 72.872300 55.301100 41.221900 0
M  V30 8 H 72.924100 55.156900 42.924900 0
M  V30 9 H 75.234800 55.493400 43.041800 0
M  V30 10 H 75.564500 54.851200 41.466500 0
M  V30 11 R 73.390200 53.320900 41.861000 0
M  V30 END ATOM
M  V30 BEGIN BOND
M  V30 1 1 2 1
M  V30 2 1 3 2
M  V30 3 1 4 3
M  V30 4 1 5 3
M  V30 5 1 6 3
M  V30 6 1 7 1
M  V30 7 1 8 1
M  V30 8 1 9 2
M  V30 9 1 10 2
M  V30 10 1 11 1
M  V30 END BOND
M  V30 END CTAB
M  END
$$$$
R-group 846 (5361-2)
     RDKit          3D

  0  0  0  0  0  0  0  0  0  0999 V3000
M  V30 BEGIN CTAB
M  V30 COUNTS 10 10 0 0 1
M  V30 BEGIN ATOM
M  V30 1 C 74.317100 54.950500 41.957900 0
M  V30 2 N 75.266400 55.513900 42.711200 0
M  V30 3 N 75.122900 56.858000 42.524600 0
M  V30 4 C 74.085600 57.001000 41.703000 0
M  V30 5 C 73.272200 58.213300 41.429200 0
M  V30 6 O 73.672100 55.839100 41.180200 0
M  V30 7 H 73.651600 59.032400 42.026300 0
M  V30 8 H 73.272200 58.458000 40.367400 0
M  V30 9 H 72.242400 58.058100 41.739000 0
M  V30 10 R 73.819000 53.540800 41.934500 0
M  V30 END ATOM
M  V30 BEGIN BOND
M  V30 1 2 2 1
M  V30 2 1 3 2
M  V30 3 2 4 3
M  V30 4 1 5 4
M  V30 5 1 6 1
M  V30 6 1 6 4
M  V30 7 1 7 5
M  V30 8 1 8 5
M  V30 9 1 9 5
M  V30 10 1 10 1
M  V30 END BOND
M  V30 END CTAB
M  END
$$$$
R-group 847 (41996-2)
     RDKit          3D

  0  0  0  0  0  0  0  0  0  0999 V3000
M  V30 BEGIN CTAB
M  V30 COUNTS 16 16 0 0 1
M  V30 BEGIN ATOM
M  V30 1 C 73.969600 55.017800 41.345500 0 CFG=2
M  V30 2 C 75.482900 55.335500 41.130200 0
M  V30 3 C 75.889500 56.743600 41.552600 0
M  V30 4 C 75.284500 56.916300 42.924800 0
M  V30 5 F 75.611700 58.043700 43.562100 0
M  V30 6 F 75.696000 55.934600 43.729900 0
M  V30 7 C 73.769800 56.900900 42.804600 0
M  V30 8 O 73.454700 55.566200 42.525700 0
M  V30 9 H 73.392900 55.454600 40.529500 0
M  V30 10 H 76.071700 54.665600 41.730200 0
M  V30 11 H 75.818100 55.162200 40.123500 0
M  V30 12 H 76.970100 56.858000 41.596600 0
M  V30 13 H 75.511800 57.490600 40.857600 0
M  V30 14 H 73.401600 57.572200 42.027800 0
M  V30 15 H 73.277000 57.183000 43.733200 0
M  V30 16 R 73.596200 53.526600 41.574400 0
M  V30 END ATOM
M  V30 BEGIN BOND
M  V30 1 1 2 1
M  V30 2 1 3 2
M  V30 3 1 4 3
M  V30 4 1 5 4
M  V30 5 1 6 4
M  V30 6 1 7 4
M  V30 7 1 8 1
M  V30 8 1 8 7
M  V30 9 1 1 9 CFG=3
M  V30 10 1 10 2
M  V30 11 1 11 2
M  V30 12 1 12 3
M  V30 13 1 13 3
M  V30 14 1 14 7
M  V30 15 1 15 7
M  V30 16 1 16 1
M  V30 END BOND
M  V30 END CTAB
M  END
$$$$
R-group 848 (7465-2)
     RDKit          3D

  0  0  0  0  0  0  0  0  0  0999 V3000
M  V30 BEGIN CTAB
M  V30 COUNTS 26 26 0 0 1
M  V30 BEGIN ATOM
M  V30 1 C 71.811500 56.273900 39.515000 0
M  V30 2 C 73.340600 56.167000 39.580500 0
M  V30 3 O 73.829600 55.398700 38.774000 0
M  V30 4 N 74.101700 56.858200 40.468500 0
M  V30 5 C 75.590100 56.896700 40.427600 0
M  V30 6 C 76.249200 56.520700 41.757500 0
M  V30 7 C 75.613600 57.075700 43.036000 0
M  V30 8 C 74.084300 57.043700 42.936900 0 CFG=2
M  V30 9 C 73.592500 55.623700 43.207200 0
M  V30 10 O 73.923500 54.764100 42.129500 0
M  V30 11 C 73.541000 57.596500 41.608500 0
M  V30 12 H 71.330400 55.521900 40.124600 0
M  V30 13 H 71.425900 57.258000 39.724600 0
M  V30 14 H 71.445700 56.036600 38.524800 0
M  V30 15 H 76.065800 57.825600 40.088600 0
M  V30 16 H 75.941100 56.153900 39.725500 0
M  V30 17 H 77.272100 56.858400 41.724800 0
M  V30 18 H 76.250200 55.436500 41.802300 0
M  V30 19 H 75.985800 58.057900 43.324700 0
M  V30 20 H 75.955800 56.456900 43.866100 0
M  V30 21 H 73.675000 57.674700 43.723600 0
M  V30 22 H 72.508200 55.651900 43.324700 0
M  V30 23 H 74.072500 55.259600 44.115700 0
M  V30 24 H 72.472000 57.508000 41.653400 0
M  V30 25 H 73.676600 58.669200 41.527200 0
M  V30 26 R 73.592800 53.400300 42.244100 0
M  V30 END ATOM
M  V30 BEGIN BOND
M  V30 1 1 2 1
M  V30 2 2 3 2
M  V30 3 1 4 2
M  V30 4 1 5 4
M  V30 5 1 6 5
M  V30 6 1 7 6
M  V30 7 1 8 7
M  V30 8 1 9 8
M  V30 9 1 10 9
M  V30 10 1 11 4
M  V30 11 1 11 8
M  V30 12 1 12 1
M  V30 13 1 13 1
M  V30 14 1 14 1
M  V30 15 1 15 5
M  V30 16 1 16 5
M  V30 17 1 17 6
M  V30 18 1 18 6
M  V30 19 1 19 7
M  V30 20 1 20 7
M  V30 21 1 8 21 CFG=1
M  V30 22 1 22 9
M  V30 23 1 23 9
M  V30 24 1 24 11
M  V30 25 1 25 11
M  V30 26 1 26 10
M  V30 END BOND
M  V30 END CTAB
M  END
$$$$
R-group 849 (7206-1)
     RDKit          3D

  0  0  0  0  0  0  0  0  0  0999 V3000
M  V30 BEGIN CTAB
M  V30 COUNTS 16 15 0 0 1
M  V30 BEGIN ATOM
M  V30 1 O 73.673000 54.820600 42.204900 0
M  V30 2 C 74.957400 55.390000 42.045200 0
M  V30 3 C 74.766400 56.762400 41.407300 0
M  V30 4 C 74.143800 56.679000 40.002600 0
M  V30 5 C 73.946100 57.681200 42.330100 0
M  V30 6 O 76.073400 57.258000 41.258800 0
M  V30 7 H 75.631800 54.789900 41.438500 0
M  V30 8 H 75.425100 55.476000 43.027200 0
M  V30 9 H 73.135800 56.268100 40.041000 0
M  V30 10 H 74.732800 56.059100 39.329700 0
M  V30 11 H 74.070100 57.658300 39.534700 0
M  V30 12 H 72.988300 57.230800 42.587500 0
M  V30 13 H 74.469200 57.879700 43.266600 0
M  V30 14 H 73.708700 58.633100 41.857600 0
M  V30 15 H 76.542500 56.704200 40.652400 0
M  V30 16 R 73.526800 53.428700 41.992500 0
M  V30 END ATOM
M  V30 BEGIN BOND
M  V30 1 1 2 1
M  V30 2 1 3 2
M  V30 3 1 4 3
M  V30 4 1 5 3
M  V30 5 1 6 3
M  V30 6 1 7 2
M  V30 7 1 8 2
M  V30 8 1 9 4
M  V30 9 1 10 4
M  V30 10 1 11 4
M  V30 11 1 12 5
M  V30 12 1 13 5
M  V30 13 1 14 5
M  V30 14 1 15 6
M  V30 15 1 16 1
M  V30 END BOND
M  V30 END CTAB
M  END
$$$$
R-group 850 (713-1)
     RDKit          3D

  0  0  0  0  0  0  0  0  0  0999 V3000
M  V30 BEGIN CTAB
M  V30 COUNTS 13 12 0 0 1
M  V30 BEGIN ATOM
M  V30 1 C 73.109000 57.157600 39.802000 0
M  V30 2 O 74.475600 56.858000 40.000100 0
M  V30 3 C 74.890400 56.957000 41.356000 0
M  V30 4 C 74.992900 55.556800 41.963400 0
M  V30 5 O 73.680700 55.028200 42.124900 0
M  V30 6 H 72.870300 57.069600 38.744400 0
M  V30 7 H 72.472600 56.468800 40.350200 0
M  V30 8 H 72.874400 58.172200 40.124700 0
M  V30 9 H 74.249300 57.609600 41.951400 0
M  V30 10 H 75.880000 57.413500 41.358200 0
M  V30 11 H 75.460900 55.609000 42.948900 0
M  V30 12 H 75.648300 54.945600 41.347700 0
M  V30 13 R 73.470800 53.636400 41.892500 0
M  V30 END ATOM
M  V30 BEGIN BOND
M  V30 1 1 2 1
M  V30 2 1 3 2
M  V30 3 1 4 3
M  V30 4 1 5 4
M  V30 5 1 6 1
M  V30 6 1 7 1
M  V30 7 1 8 1
M  V30 8 1 9 3
M  V30 9 1 10 3
M  V30 10 1 11 4
M  V30 11 1 12 4
M  V30 12 1 13 5
M  V30 END BOND
M  V30 END CTAB
M  END
$$$$
R-group 851 (27682-1)
     RDKit          3D

  0  0  0  0  0  0  0  0  0  0999 V3000
M  V30 BEGIN CTAB
M  V30 COUNTS 14 14 0 0 1
M  V30 BEGIN ATOM
M  V30 1 C 72.928700 54.344900 41.957600 0
M  V30 2 N 73.984400 55.379200 41.799700 0
M  V30 3 C 74.983900 55.666400 42.656100 0
M  V30 4 O 75.268600 55.128600 43.721500 0
M  V30 5 C 75.858700 56.740600 42.065300 0
M  V30 6 N 75.206400 56.849600 40.789000 0
M  V30 7 C 74.076400 56.151700 40.701200 0
M  V30 8 O 73.290100 56.209600 39.756200 0
M  V30 9 H 72.071700 54.461000 41.301300 0
M  V30 10 H 72.483800 54.400300 42.926400 0
M  V30 11 H 75.803500 57.656300 42.649400 0
M  V30 12 H 76.874600 56.403700 41.954800 0
M  V30 13 H 75.480800 57.543900 40.095100 0
M  V30 14 R 73.380800 52.935000 41.579100 0
M  V30 END ATOM
M  V30 BEGIN BOND
M  V30 1 1 2 1
M  V30 2 1 3 2
M  V30 3 2 4 3
M  V30 4 1 5 3
M  V30 5 1 6 5
M  V30 6 1 7 2
M  V30 7 1 7 6
M  V30 8 2 8 7
M  V30 9 1 9 1
M  V30 10 1 10 1
M  V30 11 1 11 5
M  V30 12 1 12 5
M  V30 13 1 13 6
M  V30 14 1 14 1
M  V30 END BOND
M  V30 END CTAB
M  END
$$$$
R-group 852 (14352-1)
     RDKit          3D

  0  0  0  0  0  0  0  0  0  0999 V3000
M  V30 BEGIN CTAB
M  V30 COUNTS 13 13 0 0 1
M  V30 BEGIN ATOM
M  V30 1 C 74.230400 54.673300 41.728200 0
M  V30 2 C 75.264100 55.184000 40.990000 0
M  V30 3 S 75.464200 56.858700 41.312200 0
M  V30 4 C 74.004000 56.898500 42.259600 0
M  V30 5 C 73.292400 58.028100 42.909800 0
M  V30 6 O 72.472300 58.857800 42.070500 0
M  V30 7 C 73.671400 55.642200 42.554200 0
M  V30 8 H 75.957400 54.694100 40.326800 0
M  V30 9 H 72.580200 57.619100 43.622300 0
M  V30 10 H 74.034100 58.457900 43.552600 0
M  V30 11 H 72.918400 55.401500 43.300900 0
M  V30 12 H 71.777800 58.326100 41.713800 0
M  V30 13 R 73.721100 53.287700 41.813700 0
M  V30 END ATOM
M  V30 BEGIN BOND
M  V30 1 2 2 1
M  V30 2 1 3 2
M  V30 3 1 4 3
M  V30 4 1 5 4
M  V30 5 1 6 5
M  V30 6 1 7 1
M  V30 7 2 7 4
M  V30 8 1 8 2
M  V30 9 1 9 5
M  V30 10 1 10 5
M  V30 11 1 11 7
M  V30 12 1 12 6
M  V30 13 1 13 1
M  V30 END BOND
M  V30 END CTAB
M  END
$$$$
R-group 853 (12085-1)
     RDKit          3D

  0  0  0  0  0  0  0  0  0  0999 V3000
M  V30 BEGIN CTAB
M  V30 COUNTS 14 14 0 0 1
M  V30 BEGIN ATOM
M  V30 1 C 74.107900 54.787800 42.083700 0
M  V30 2 O 73.621900 55.552800 41.065400 0
M  V30 3 C 73.963600 56.813200 41.380800 0
M  V30 4 C 73.256500 57.911200 40.662800 0
M  V30 5 N 74.772700 56.869400 42.430600 0
M  V30 6 C 74.867500 55.579800 42.909800 0
M  V30 7 C 75.600800 55.321300 44.191000 0
M  V30 8 H 73.272000 58.832300 41.247500 0
M  V30 9 H 73.673900 58.059400 39.668700 0
M  V30 10 H 72.210500 57.634700 40.524300 0
M  V30 11 H 74.913600 55.011600 44.979900 0
M  V30 12 H 76.380000 54.569200 44.124900 0
M  V30 13 H 76.073800 56.238800 44.524600 0
M  V30 14 R 73.666100 53.363600 42.061700 0
M  V30 END ATOM
M  V30 BEGIN BOND
M  V30 1 1 2 1
M  V30 2 1 3 2
M  V30 3 1 4 3
M  V30 4 2 5 3
M  V30 5 2 6 1
M  V30 6 1 6 5
M  V30 7 1 7 6
M  V30 8 1 8 4
M  V30 9 1 9 4
M  V30 10 1 10 4
M  V30 11 1 11 7
M  V30 12 1 12 7
M  V30 13 1 13 7
M  V30 14 1 14 1
M  V30 END BOND
M  V30 END CTAB
M  END
$$$$
R-group 854 (6600-2)
     RDKit          3D

  0  0  0  0  0  0  0  0  0  0999 V3000
M  V30 BEGIN CTAB
M  V30 COUNTS 12 11 0 0 1
M  V30 BEGIN ATOM
M  V30 1 C 73.660300 57.399400 39.776000 0
M  V30 2 N 73.595300 56.008400 40.161600 0
M  V30 3 S 74.072300 55.648300 41.615500 0 CFG=1
M  V30 4 C 75.854300 55.747800 41.573300 0
M  V30 5 O 73.672200 56.419600 42.798600 0
M  V30 6 H 74.617400 57.657900 39.324200 0
M  V30 7 H 72.896900 57.634700 39.037100 0
M  V30 8 H 73.494100 58.071500 40.616800 0
M  V30 9 H 76.257400 55.258000 40.692300 0
M  V30 10 H 76.165900 56.791000 41.607300 0
M  V30 11 H 76.072300 55.264500 42.510300 0
M  V30 12 R 73.650300 53.823700 41.886900 0
M  V30 END ATOM
M  V30 BEGIN BOND
M  V30 1 1 2 1
M  V30 2 2 3 2
M  V30 3 1 4 3
M  V30 4 2 5 3
M  V30 5 1 6 1
M  V30 6 1 7 1
M  V30 7 1 8 1
M  V30 8 1 9 4
M  V30 9 1 10 4
M  V30 10 1 11 4
M  V30 11 1 3 12 CFG=1
M  V30 END BOND
M  V30 END CTAB
M  END
$$$$
R-group 855 (23166-1)
     RDKit          3D

  0  0  0  0  0  0  0  0  0  0999 V3000
M  V30 BEGIN CTAB
M  V30 COUNTS 11 11 0 0 1
M  V30 BEGIN ATOM
M  V30 1 C 74.230100 54.669100 41.925400 0
M  V30 2 C 75.215000 55.310000 42.633900 0
M  V30 3 S 75.556000 56.858000 41.962800 0
M  V30 4 C 74.094300 56.704500 41.016800 0
M  V30 5 C 73.216200 57.808600 40.606700 0
M  V30 6 F 72.872100 58.459400 41.718100 0
M  V30 7 N 73.670600 55.466900 40.946300 0
M  V30 8 H 75.785600 54.951900 43.474400 0
M  V30 9 H 73.671700 58.444200 39.853300 0
M  V30 10 H 72.296700 57.411900 40.174800 0
M  V30 11 R 73.694800 53.283100 42.068800 0
M  V30 END ATOM
M  V30 BEGIN BOND
M  V30 1 2 2 1
M  V30 2 1 3 2
M  V30 3 1 4 3
M  V30 4 1 5 4
M  V30 5 1 6 5
M  V30 6 1 7 1
M  V30 7 2 7 4
M  V30 8 1 8 2
M  V30 9 1 9 5
M  V30 10 1 10 5
M  V30 11 1 11 1
M  V30 END BOND
M  V30 END CTAB
M  END
$$$$
R-group 856 (42839-1)
     RDKit          3D

  0  0  0  0  0  0  0  0  0  0999 V3000
M  V30 BEGIN CTAB
M  V30 COUNTS 9 8 0 0 1
M  V30 BEGIN ATOM
M  V30 1 C 73.336600 55.057400 42.067000 0
M  V30 2 C 74.562700 55.939500 42.274400 0
M  V30 3 O 74.084500 57.244200 42.524300 0
M  V30 4 F 75.273500 55.505500 43.328300 0
M  V30 5 F 75.368300 55.943000 41.187400 0
M  V30 6 H 72.872300 55.521500 41.206800 0
M  V30 7 H 72.672800 55.189900 42.923400 0
M  V30 8 H 74.396100 57.500400 43.378900 0
M  V30 9 R 73.451600 53.536600 41.768100 0
M  V30 END ATOM
M  V30 BEGIN BOND
M  V30 1 1 2 1
M  V30 2 1 3 2
M  V30 3 1 4 2
M  V30 4 1 5 2
M  V30 5 1 6 1
M  V30 6 1 7 1
M  V30 7 1 8 3
M  V30 8 1 9 1
M  V30 END BOND
M  V30 END CTAB
M  END
$$$$
R-group 857 (165-2)
     RDKit          3D

  0  0  0  0  0  0  0  0  0  0999 V3000
M  V30 BEGIN CTAB
M  V30 COUNTS 2 1 0 0 1
M  V30 BEGIN ATOM
M  V30 1 F 73.794300 55.027700 42.072800 0
M  V30 2 R 73.458800 53.756800 41.855700 0
M  V30 END ATOM
M  V30 BEGIN BOND
M  V30 1 1 2 1
M  V30 END BOND
M  V30 END CTAB
M  END
$$$$
R-group 858 (37806-1)
     RDKit          3D

  0  0  0  0  0  0  0  0  0  0999 V3000
M  V30 BEGIN CTAB
M  V30 COUNTS 17 17 0 0 1
M  V30 BEGIN ATOM
M  V30 1 C 73.690600 54.703200 41.375600 0 CFG=2
M  V30 2 O 72.878300 55.108600 40.279300 0
M  V30 3 C 73.623800 55.615600 42.610300 0
M  V30 4 C 74.861700 56.326600 42.145500 0 CFG=1
M  V30 5 C 74.671200 57.657900 41.493100 0
M  V30 6 O 75.821000 56.463300 43.156600 0
M  V30 7 C 75.140800 55.170800 41.212100 0
M  V30 8 H 72.794400 56.297900 42.728200 0
M  V30 9 H 73.829600 55.124200 43.553800 0
M  V30 10 H 74.172500 57.575500 40.526400 0
M  V30 11 H 74.072100 58.344000 42.102000 0
M  V30 12 H 75.683400 58.008600 41.323700 0
M  V30 13 H 75.894200 54.526000 41.647200 0
M  V30 14 H 75.421900 55.470600 40.201000 0
M  V30 15 H 73.046600 56.028400 40.137400 0
M  V30 16 H 75.675700 57.299400 43.579000 0
M  V30 17 R 73.432300 53.204200 41.645500 0
M  V30 END ATOM
M  V30 BEGIN BOND
M  V30 1 1 2 1
M  V30 2 1 3 1
M  V30 3 1 4 3
M  V30 4 1 5 4
M  V30 5 1 4 6 CFG=1
M  V30 6 1 7 1
M  V30 7 1 7 4
M  V30 8 1 8 3
M  V30 9 1 9 3
M  V30 10 1 10 5
M  V30 11 1 11 5
M  V30 12 1 12 5
M  V30 13 1 13 7
M  V30 14 1 14 7
M  V30 15 1 15 2
M  V30 16 1 16 6
M  V30 17 1 1 17 CFG=1
M  V30 END BOND
M  V30 END CTAB
M  END
$$$$
R-group 859 (20761-1)
     RDKit          3D

  0  0  0  0  0  0  0  0  0  0999 V3000
M  V30 BEGIN CTAB
M  V30 COUNTS 18 17 0 0 1
M  V30 BEGIN ATOM
M  V30 1 C 76.575300 57.455100 40.597500 0
M  V30 2 C 75.169000 56.865000 40.605500 0
M  V30 3 O 75.105900 55.743200 41.485700 0
M  V30 4 C 73.773300 55.366800 41.823400 0 CFG=2
M  V30 5 C 73.343500 56.014300 43.149600 0
M  V30 6 C 73.287300 57.547600 43.193800 0
M  V30 7 H 76.606500 58.383900 40.030100 0
M  V30 8 H 76.924300 57.659700 41.609500 0
M  V30 9 H 77.271400 56.771800 40.124800 0
M  V30 10 H 74.875200 56.566100 39.598400 0
M  V30 11 H 74.483600 57.657500 40.906200 0
M  V30 12 H 73.100100 55.783000 41.071700 0
M  V30 13 H 72.330500 55.660800 43.331000 0
M  V30 14 H 73.985700 55.657900 43.952700 0
M  V30 15 H 72.832700 57.883400 44.124700 0
M  V30 16 H 74.286700 57.980700 43.152500 0
M  V30 17 H 72.695300 57.955800 42.374400 0
M  V30 18 R 73.546000 53.813600 41.790400 0
M  V30 END ATOM
M  V30 BEGIN BOND
M  V30 1 1 2 1
M  V30 2 1 3 2
M  V30 3 1 4 3
M  V30 4 1 5 4
M  V30 5 1 6 5
M  V30 6 1 7 1
M  V30 7 1 8 1
M  V30 8 1 9 1
M  V30 9 1 10 2
M  V30 10 1 11 2
M  V30 11 1 4 12 CFG=3
M  V30 12 1 13 5
M  V30 13 1 14 5
M  V30 14 1 15 6
M  V30 15 1 16 6
M  V30 16 1 17 6
M  V30 17 1 18 4
M  V30 END BOND
M  V30 END CTAB
M  END
$$$$
R-group 860 (19474-1)
     RDKit          3D

  0  0  0  0  0  0  0  0  0  0999 V3000
M  V30 BEGIN CTAB
M  V30 COUNTS 16 16 0 0 1
M  V30 BEGIN ATOM
M  V30 1 C 73.522100 54.433500 41.284800 0
M  V30 2 C 73.358100 55.280500 40.138800 0
M  V30 3 C 73.731100 56.513700 40.591800 0
M  V30 4 N 74.058100 56.336200 41.916900 0
M  V30 5 C 74.446600 57.232600 42.937000 0
M  V30 6 C 75.879100 56.897200 43.416900 0
M  V30 7 O 76.072300 55.658400 44.113900 0
M  V30 8 N 73.910700 55.091900 42.326000 0
M  V30 9 H 73.044400 55.018600 39.140300 0
M  V30 10 H 73.793900 57.471900 40.098100 0
M  V30 11 H 74.323300 58.230100 42.549800 0
M  V30 12 H 73.699300 57.165200 43.724700 0
M  V30 13 H 76.564300 56.975200 42.570300 0
M  V30 14 H 76.111100 57.651600 44.130500 0
M  V30 15 H 75.514900 55.021900 43.676500 0
M  V30 16 R 73.382100 52.965500 41.500600 0
M  V30 END ATOM
M  V30 BEGIN BOND
M  V30 1 1 2 1
M  V30 2 2 3 2
M  V30 3 1 4 3
M  V30 4 1 5 4
M  V30 5 1 6 5
M  V30 6 1 7 6
M  V30 7 2 8 1
M  V30 8 1 8 4
M  V30 9 1 9 2
M  V30 10 1 10 3
M  V30 11 1 11 5
M  V30 12 1 12 5
M  V30 13 1 13 6
M  V30 14 1 14 6
M  V30 15 1 15 7
M  V30 16 1 16 1
M  V30 END BOND
M  V30 END CTAB
M  END
$$$$
R-group 861 (29060-4)
     RDKit          3D

  0  0  0  0  0  0  0  0  0  0999 V3000
M  V30 BEGIN CTAB
M  V30 COUNTS 22 22 0 0 1
M  V30 BEGIN ATOM
M  V30 1 C 73.931100 54.948100 41.531600 0 CFG=1
M  V30 2 C 73.350600 55.731900 40.317500 0
M  V30 3 C 73.778100 57.200000 40.340100 0
M  V30 4 C 73.410200 57.844800 41.678200 0
M  V30 5 C 73.978000 57.087300 42.884400 0 CFG=2
M  V30 6 C 75.510500 57.189200 43.079500 0
M  V30 7 O 76.072300 56.059100 43.724200 0
M  V30 8 C 73.517300 55.645300 42.832600 0
M  V30 9 H 75.015000 55.007500 41.428000 0
M  V30 10 H 73.697300 55.329100 39.369500 0
M  V30 11 H 72.267000 55.651500 40.279000 0
M  V30 12 H 74.854000 57.257800 40.174200 0
M  V30 13 H 73.306800 57.737700 39.517400 0
M  V30 14 H 73.707400 58.871700 41.724900 0
M  V30 15 H 72.329500 57.898600 41.757500 0
M  V30 16 H 73.498400 57.541300 43.744100 0
M  V30 17 H 76.038100 57.336600 42.137600 0
M  V30 18 H 75.699200 58.035500 43.724700 0
M  V30 19 H 72.445100 55.595400 42.929800 0
M  V30 20 H 73.899700 55.155200 43.719000 0
M  V30 21 H 75.838500 55.290700 43.225500 0
M  V30 22 R 73.563600 53.448700 41.626600 0
M  V30 END ATOM
M  V30 BEGIN BOND
M  V30 1 1 2 1
M  V30 2 1 3 2
M  V30 3 1 4 3
M  V30 4 1 5 4
M  V30 5 1 6 5
M  V30 6 1 7 6
M  V30 7 1 8 1
M  V30 8 1 8 5
M  V30 9 1 1 9 CFG=3
M  V30 10 1 10 2
M  V30 11 1 11 2
M  V30 12 1 12 3
M  V30 13 1 13 3
M  V30 14 1 14 4
M  V30 15 1 15 4
M  V30 16 1 5 16 CFG=1
M  V30 17 1 17 6
M  V30 18 1 18 6
M  V30 19 1 19 8
M  V30 20 1 20 8
M  V30 21 1 21 7
M  V30 22 1 22 1
M  V30 END BOND
M  V30 END CTAB
M  END
$$$$
R-group 862 (29312-4)
     RDKit          3D

  0  0  0  0  0  0  0  0  0  0999 V3000
M  V30 BEGIN CTAB
M  V30 COUNTS 22 22 0 0 1
M  V30 BEGIN ATOM
M  V30 1 C 73.806100 54.778300 41.388300 0 CFG=1
M  V30 2 C 73.042200 55.328800 40.141500 0
M  V30 3 C 73.437200 56.765600 39.825800 0 CFG=2
M  V30 4 C 74.872000 56.837500 39.325300 0
M  V30 5 C 73.125100 57.661700 41.006900 0
M  V30 6 C 73.672300 57.158300 42.348600 0 CFG=1
M  V30 7 O 72.872300 57.768900 43.324900 0
M  V30 8 C 73.495300 55.650200 42.604400 0
M  V30 9 H 74.874100 54.848700 41.203600 0
M  V30 10 H 73.226800 54.767100 39.227300 0
M  V30 11 H 71.965800 55.254400 40.291800 0
M  V30 12 H 72.813100 57.115600 38.998800 0
M  V30 13 H 75.594000 56.276300 39.910700 0
M  V30 14 H 74.874500 56.458100 38.298800 0
M  V30 15 H 75.244600 57.845500 39.324700 0
M  V30 16 H 73.284200 58.713500 40.823100 0
M  V30 17 H 72.072700 57.659000 41.067700 0
M  V30 18 H 74.717000 57.454500 42.460000 0
M  V30 19 H 72.476200 55.433400 42.925700 0
M  V30 20 H 74.116500 55.370600 43.453600 0
M  V30 21 H 72.225900 57.146900 43.616300 0
M  V30 22 R 73.528700 53.283700 41.699100 0
M  V30 END ATOM
M  V30 BEGIN BOND
M  V30 1 1 2 1
M  V30 2 1 3 2
M  V30 3 1 4 3
M  V30 4 1 5 3
M  V30 5 1 6 5
M  V30 6 1 7 6
M  V30 7 1 8 1
M  V30 8 1 8 6
M  V30 9 1 1 9 CFG=3
M  V30 10 1 10 2
M  V30 11 1 11 2
M  V30 12 1 3 12 CFG=3
M  V30 13 1 13 4
M  V30 14 1 14 4
M  V30 15 1 15 4
M  V30 16 1 16 5
M  V30 17 1 17 5
M  V30 18 1 6 18 CFG=1
M  V30 19 1 19 8
M  V30 20 1 20 8
M  V30 21 1 21 7
M  V30 22 1 22 1
M  V30 END BOND
M  V30 END CTAB
M  END
$$$$
R-group 863 (31003-1)
     RDKit          3D

  0  0  0  0  0  0  0  0  0  0999 V3000
M  V30 BEGIN CTAB
M  V30 COUNTS 21 21 0 0 1
M  V30 BEGIN ATOM
M  V30 1 C 73.589500 54.802400 41.331400 0 CFG=2
M  V30 2 C 74.939900 55.287000 40.783800 0
M  V30 3 C 75.391800 56.479300 41.611000 0
M  V30 4 C 74.634800 56.382300 42.941800 0
M  V30 5 C 75.497900 55.657900 44.030400 0
M  V30 6 C 74.086700 57.776100 43.324700 0
M  V30 7 C 73.425100 55.506500 42.658300 0
M  V30 8 H 72.808300 55.174800 40.668600 0
M  V30 9 H 75.674100 54.499400 40.865700 0
M  V30 10 H 74.873300 55.554500 39.733100 0
M  V30 11 H 76.475800 56.504300 41.736200 0
M  V30 12 H 75.127500 57.384400 41.065400 0
M  V30 13 H 74.881700 55.244500 44.833300 0
M  V30 14 H 76.072100 54.829400 43.638900 0
M  V30 15 H 76.188100 56.337800 44.522900 0
M  V30 16 H 73.277000 57.714500 44.061300 0
M  V30 17 H 74.854800 58.433000 43.724700 0
M  V30 18 H 73.647200 58.280900 42.462500 0
M  V30 19 H 72.472200 55.963300 42.925100 0
M  V30 20 H 73.433400 54.688900 43.315400 0
M  V30 21 R 73.450300 53.253100 41.512000 0
M  V30 END ATOM
M  V30 BEGIN BOND
M  V30 1 1 2 1
M  V30 2 1 3 2
M  V30 3 1 4 3
M  V30 4 1 5 4
M  V30 5 1 6 4
M  V30 6 1 7 1
M  V30 7 1 7 4
M  V30 8 1 1 8 CFG=3
M  V30 9 1 9 2
M  V30 10 1 10 2
M  V30 11 1 11 3
M  V30 12 1 12 3
M  V30 13 1 13 5
M  V30 14 1 14 5
M  V30 15 1 15 5
M  V30 16 1 16 6
M  V30 17 1 17 6
M  V30 18 1 18 6
M  V30 19 1 19 7
M  V30 20 1 20 7
M  V30 21 1 21 1
M  V30 END BOND
M  V30 END CTAB
M  END
$$$$
R-group 864 (5697-1)
     RDKit          3D

  0  0  0  0  0  0  0  0  0  0999 V3000
M  V30 BEGIN CTAB
M  V30 COUNTS 16 15 0 0 1
M  V30 BEGIN ATOM
M  V30 1 C 76.143300 57.249800 40.778900 0
M  V30 2 O 76.073400 56.459600 41.947300 0
M  V30 3 C 75.576100 57.108200 43.095700 0
M  V30 4 C 74.052100 57.163500 42.952100 0
M  V30 5 C 73.519300 55.737900 43.075200 0
M  V30 6 O 73.757200 55.051100 41.859300 0
M  V30 7 H 76.875000 56.787200 40.125500 0
M  V30 8 H 75.185300 57.262400 40.258900 0
M  V30 9 H 76.473500 58.268900 40.974700 0
M  V30 10 H 76.054000 58.058000 43.324200 0
M  V30 11 H 75.861600 56.485600 43.942600 0
M  V30 12 H 73.738300 57.622000 42.014900 0
M  V30 13 H 73.623200 57.789000 43.727500 0
M  V30 14 H 72.458500 55.735200 43.323600 0
M  V30 15 H 74.072600 55.257600 43.883300 0
M  V30 16 R 73.433500 53.669300 41.856900 0
M  V30 END ATOM
M  V30 BEGIN BOND
M  V30 1 1 2 1
M  V30 2 1 3 2
M  V30 3 1 4 3
M  V30 4 1 5 4
M  V30 5 1 6 5
M  V30 6 1 7 1
M  V30 7 1 8 1
M  V30 8 1 9 1
M  V30 9 1 10 3
M  V30 10 1 11 3
M  V30 11 1 12 4
M  V30 12 1 13 4
M  V30 13 1 14 5
M  V30 14 1 15 5
M  V30 15 1 16 6
M  V30 END BOND
M  V30 END CTAB
M  END
$$$$
R-group 865 (6390-1)
     RDKit          3D

  0  0  0  0  0  0  0  0  0  0999 V3000
M  V30 BEGIN CTAB
M  V30 COUNTS 8 7 0 0 1
M  V30 BEGIN ATOM
M  V30 1 C 73.954000 55.340700 41.965800 0
M  V30 2 C 75.373800 55.788700 41.627600 0
M  V30 3 F 73.175500 56.118600 41.220500 0
M  V30 4 F 73.746400 55.658100 43.243300 0
M  V30 5 H 75.554300 56.807200 41.973200 0
M  V30 6 H 76.072200 55.142900 42.127600 0
M  V30 7 H 75.585600 55.776000 40.561200 0
M  V30 8 R 73.603900 53.827100 41.770700 0
M  V30 END ATOM
M  V30 BEGIN BOND
M  V30 1 1 2 1
M  V30 2 1 3 1
M  V30 3 1 4 1
M  V30 4 1 5 2
M  V30 5 1 6 2
M  V30 6 1 7 2
M  V30 7 1 8 1
M  V30 END BOND
M  V30 END CTAB
M  END
$$$$
R-group 866 (26350-2)
     RDKit          3D

  0  0  0  0  0  0  0  0  0  0999 V3000
M  V30 BEGIN CTAB
M  V30 COUNTS 11 11 0 0 1
M  V30 BEGIN ATOM
M  V30 1 C 74.161700 54.889800 41.865300 0
M  V30 2 N 73.672200 55.795700 42.590300 0
M  V30 3 N 74.427100 56.823800 42.375200 0
M  V30 4 C 74.066600 58.057700 43.011600 0
M  V30 5 C 75.455700 56.545800 41.498900 0
M  V30 6 O 76.373000 57.258100 41.108700 0
M  V30 7 O 75.256500 55.282000 41.147900 0
M  V30 8 H 74.830200 58.380000 43.723900 0
M  V30 9 H 73.866400 58.805100 42.240200 0
M  V30 10 H 73.139800 57.954100 43.582400 0
M  V30 11 R 73.694000 53.476700 41.829300 0
M  V30 END ATOM
M  V30 BEGIN BOND
M  V30 1 2 2 1
M  V30 2 1 3 2
M  V30 3 1 4 3
M  V30 4 1 5 3
M  V30 5 2 6 5
M  V30 6 1 7 1
M  V30 7 1 7 5
M  V30 8 1 8 4
M  V30 9 1 9 4
M  V30 10 1 10 4
M  V30 11 1 11 1
M  V30 END BOND
M  V30 END CTAB
M  END
$$$$
R-group 867 (31144-1)
     RDKit          3D

  0  0  0  0  0  0  0  0  0  0999 V3000
M  V30 BEGIN CTAB
M  V30 COUNTS 19 19 0 0 1
M  V30 BEGIN ATOM
M  V30 1 C 74.023400 55.210700 41.550600 0 CFG=1
M  V30 2 C 75.450900 55.644300 41.150400 0
M  V30 3 O 75.279100 56.670700 40.181700 0
M  V30 4 C 74.071900 56.462100 39.496900 0
M  V30 5 C 73.141300 56.145300 40.658500 0
M  V30 6 C 71.810700 55.577200 40.101700 0
M  V30 7 C 72.883200 57.479600 41.418200 0
M  V30 8 H 73.895500 55.536800 42.584000 0
M  V30 9 H 76.005000 56.037500 42.001400 0
M  V30 10 H 76.063900 54.857900 40.720400 0
M  V30 11 H 74.172000 55.628000 38.802200 0
M  V30 12 H 73.773400 57.341800 38.926100 0
M  V30 13 H 71.031000 56.333200 40.100800 0
M  V30 14 H 71.896400 55.266000 39.060700 0
M  V30 15 H 71.409700 54.735700 40.664000 0
M  V30 16 H 72.224600 58.152800 40.868300 0
M  V30 17 H 72.472300 57.309600 42.410300 0
M  V30 18 H 73.805300 58.035300 41.592700 0
M  V30 19 R 73.746600 53.659400 41.621100 0
M  V30 END ATOM
M  V30 BEGIN BOND
M  V30 1 1 2 1
M  V30 2 1 3 2
M  V30 3 1 4 3
M  V30 4 1 5 1
M  V30 5 1 5 4
M  V30 6 1 6 5
M  V30 7 1 7 5
M  V30 8 1 1 8 CFG=1
M  V30 9 1 9 2
M  V30 10 1 10 2
M  V30 11 1 11 4
M  V30 12 1 12 4
M  V30 13 1 13 6
M  V30 14 1 14 6
M  V30 15 1 15 6
M  V30 16 1 16 7
M  V30 17 1 17 7
M  V30 18 1 18 7
M  V30 19 1 19 1
M  V30 END BOND
M  V30 END CTAB
M  END
$$$$
R-group 868 (3574-1)
     RDKit          3D

  0  0  0  0  0  0  0  0  0  0999 V3000
M  V30 BEGIN CTAB
M  V30 COUNTS 11 11 0 0 1
M  V30 BEGIN ATOM
M  V30 1 N 74.615700 55.209200 41.643500 0
M  V30 2 C 74.960800 55.958900 42.858900 0
M  V30 3 C 73.675100 56.752000 42.648300 0
M  V30 4 F 73.818400 58.058000 42.840900 0
M  V30 5 F 72.634700 56.262800 43.324700 0
M  V30 6 C 73.776300 56.318900 41.187500 0
M  V30 7 H 75.004200 55.364700 43.766300 0
M  V30 8 H 75.868300 56.539000 42.682100 0
M  V30 9 H 74.375500 56.992800 40.573200 0
M  V30 10 H 72.865400 56.000600 40.696600 0
M  V30 11 R 73.922000 53.917200 41.840400 0
M  V30 END ATOM
M  V30 BEGIN BOND
M  V30 1 1 2 1
M  V30 2 1 3 2
M  V30 3 1 4 3
M  V30 4 1 5 3
M  V30 5 1 6 1
M  V30 6 1 6 3
M  V30 7 1 7 2
M  V30 8 1 8 2
M  V30 9 1 9 6
M  V30 10 1 10 6
M  V30 11 1 11 1
M  V30 END BOND
M  V30 END CTAB
M  END
$$$$
R-group 869 (1433-1)
     RDKit          3D

  0  0  0  0  0  0  0  0  0  0999 V3000
M  V30 BEGIN CTAB
M  V30 COUNTS 11 10 0 0 1
M  V30 BEGIN ATOM
M  V30 1 C 73.691800 55.061300 42.254000 0
M  V30 2 C 75.107500 55.611300 41.994600 0
M  V30 3 C 75.071300 56.980400 41.317800 0
M  V30 4 F 74.513600 56.857700 40.113700 0
M  V30 5 H 72.970600 55.621800 41.665700 0
M  V30 6 H 73.438600 55.276000 43.292000 0
M  V30 7 H 75.650500 55.676800 42.938000 0
M  V30 8 H 75.686100 54.937000 41.372100 0
M  V30 9 H 74.471400 57.683900 41.891900 0
M  V30 10 H 76.071000 57.394100 41.181100 0
M  V30 11 R 73.475000 53.560700 41.954900 0
M  V30 END ATOM
M  V30 BEGIN BOND
M  V30 1 1 2 1
M  V30 2 1 3 2
M  V30 3 1 4 3
M  V30 4 1 5 1
M  V30 5 1 6 1
M  V30 6 1 7 2
M  V30 7 1 8 2
M  V30 8 1 9 3
M  V30 9 1 10 3
M  V30 10 1 11 1
M  V30 END BOND
M  V30 END CTAB
M  END
$$$$
R-group 870 (3957-2)
     RDKit          3D

  0  0  0  0  0  0  0  0  0  0999 V3000
M  V30 BEGIN CTAB
M  V30 COUNTS 19 20 0 0 1
M  V30 BEGIN ATOM
M  V30 1 C 74.265000 54.799400 41.886300 0 CFG=1
M  V30 2 C 73.497600 55.800200 40.991700 0
M  V30 3 C 73.243500 56.954500 41.956700 0 CFG=2
M  V30 4 C 74.539900 57.657800 42.254600 0
M  V30 5 C 75.365100 56.671000 43.069100 0
M  V30 6 C 74.340800 55.543200 43.243400 0 CFG=1
M  V30 7 C 73.000500 56.273900 43.295500 0
M  V30 8 H 75.277800 54.708000 41.492500 0
M  V30 9 H 74.090800 56.115000 40.131900 0
M  V30 10 H 72.554800 55.420800 40.601800 0
M  V30 11 H 72.472500 57.649500 41.627100 0
M  V30 12 H 75.042100 58.016700 41.355300 0
M  V30 13 H 74.252600 58.458000 42.924400 0
M  V30 14 H 75.680200 57.123300 44.008200 0
M  V30 15 H 76.269500 56.353500 42.548600 0
M  V30 16 H 74.549400 54.944900 44.123800 0
M  V30 17 H 72.135400 55.612100 43.324300 0
M  V30 18 H 72.900400 56.974400 44.124700 0
M  V30 19 R 73.675300 53.374700 41.945000 0
M  V30 END ATOM
M  V30 BEGIN BOND
M  V30 1 1 2 1
M  V30 2 1 3 2
M  V30 3 1 4 3
M  V30 4 1 5 4
M  V30 5 1 6 1
M  V30 6 1 6 5
M  V30 7 1 7 3
M  V30 8 1 7 6
M  V30 9 1 1 8 CFG=3
M  V30 10 1 9 2
M  V30 11 1 10 2
M  V30 12 1 3 11 CFG=3
M  V30 13 1 12 4
M  V30 14 1 13 4
M  V30 15 1 14 5
M  V30 16 1 15 5
M  V30 17 1 6 16 CFG=1
M  V30 18 1 17 7
M  V30 19 1 18 7
M  V30 20 1 19 1
M  V30 END BOND
M  V30 END CTAB
M  END
$$$$
R-group 871 (20762-2)
     RDKit          3D

  0  0  0  0  0  0  0  0  0  0999 V3000
M  V30 BEGIN CTAB
M  V30 COUNTS 15 14 0 0 1
M  V30 BEGIN ATOM
M  V30 1 C 76.305800 57.386200 40.524400 0
M  V30 2 O 75.985200 56.922900 41.817800 0
M  V30 3 C 75.614500 55.567300 41.872500 0
M  V30 4 C 74.089000 55.361600 41.901300 0 CFG=1
M  V30 5 C 73.540400 56.045200 43.167100 0
M  V30 6 F 73.608700 56.032900 40.855200 0
M  V30 7 H 76.472600 58.458200 40.569700 0
M  V30 8 H 77.214600 56.919600 40.147600 0
M  V30 9 H 75.500200 57.206400 39.813200 0
M  V30 10 H 76.032900 55.257400 42.822000 0
M  V30 11 H 76.072200 54.997600 41.073000 0
M  V30 12 H 74.052700 55.657800 44.047500 0
M  V30 13 H 73.709200 57.123100 43.142000 0
M  V30 14 H 72.471900 55.886500 43.307900 0
M  V30 15 R 73.636200 53.853800 41.781900 0
M  V30 END ATOM
M  V30 BEGIN BOND
M  V30 1 1 2 1
M  V30 2 1 3 2
M  V30 3 1 4 3
M  V30 4 1 5 4
M  V30 5 1 6 4
M  V30 6 1 7 1
M  V30 7 1 8 1
M  V30 8 1 9 1
M  V30 9 1 10 3
M  V30 10 1 11 3
M  V30 11 1 12 5
M  V30 12 1 13 5
M  V30 13 1 14 5
M  V30 14 1 4 15 CFG=3
M  V30 END BOND
M  V30 END CTAB
M  END
$$$$
R-group 872 (13114-1)
     RDKit          3D

  0  0  0  0  0  0  0  0  0  0999 V3000
M  V30 BEGIN CTAB
M  V30 COUNTS 16 16 0 0 1
M  V30 BEGIN ATOM
M  V30 1 O 74.258700 54.877100 42.223500 0
M  V30 2 C 73.397000 55.980800 42.076100 0
M  V30 3 C 74.236700 57.253100 41.963400 0
M  V30 4 C 75.244700 57.143800 40.834600 0
M  V30 5 C 76.638700 57.691700 40.991200 0
M  V30 6 C 76.419000 56.213800 40.990700 0
M  V30 7 H 72.872300 55.876300 41.132600 0
M  V30 8 H 72.709100 56.030600 42.924800 0
M  V30 9 H 73.599200 58.120800 41.791900 0
M  V30 10 H 74.760000 57.424200 42.905100 0
M  V30 11 H 74.808200 57.184600 39.838200 0
M  V30 12 H 77.146100 58.106500 40.124700 0
M  V30 13 H 76.872200 58.133900 41.951200 0
M  V30 14 H 76.472400 55.703600 41.944600 0
M  V30 15 H 76.736400 55.643500 40.124700 0
M  V30 16 R 73.687900 53.583200 42.186700 0
M  V30 END ATOM
M  V30 BEGIN BOND
M  V30 1 1 2 1
M  V30 2 1 3 2
M  V30 3 1 4 3
M  V30 4 1 5 4
M  V30 5 1 6 4
M  V30 6 1 6 5
M  V30 7 1 7 2
M  V30 8 1 8 2
M  V30 9 1 9 3
M  V30 10 1 10 3
M  V30 11 1 11 4
M  V30 12 1 12 5
M  V30 13 1 13 5
M  V30 14 1 14 6
M  V30 15 1 15 6
M  V30 16 1 16 1
M  V30 END BOND
M  V30 END CTAB
M  END
$$$$
R-group 873 (16154-2)
     RDKit          3D

  0  0  0  0  0  0  0  0  0  0999 V3000
M  V30 BEGIN CTAB
M  V30 COUNTS 18 17 0 0 1
M  V30 BEGIN ATOM
M  V30 1 C 72.895200 57.233100 43.623300 0
M  V30 2 C 74.258400 57.684700 43.065900 0
M  V30 3 C 75.279800 56.571600 42.767900 0
M  V30 4 C 74.875900 55.620600 41.631200 0 CFG=2
M  V30 5 C 74.528800 56.375900 40.328800 0
M  V30 6 O 73.755600 54.900500 42.124300 0
M  V30 7 H 72.203600 58.058000 43.724700 0
M  V30 8 H 72.472200 56.547700 42.924700 0
M  V30 9 H 72.872300 56.674500 44.550500 0
M  V30 10 H 74.736300 58.398900 43.724700 0
M  V30 11 H 74.072200 58.264700 42.163700 0
M  V30 12 H 75.476700 55.997300 43.674100 0
M  V30 13 H 76.228700 57.040300 42.503700 0
M  V30 14 H 75.717100 54.954500 41.457600 0
M  V30 15 H 75.343200 57.039400 40.038200 0
M  V30 16 H 74.340700 55.716500 39.486600 0
M  V30 17 H 73.627800 56.978000 40.438900 0
M  V30 18 R 73.622000 53.511800 41.898500 0
M  V30 END ATOM
M  V30 BEGIN BOND
M  V30 1 1 2 1
M  V30 2 1 3 2
M  V30 3 1 4 3
M  V30 4 1 5 4
M  V30 5 1 6 4
M  V30 6 1 7 1
M  V30 7 1 8 1
M  V30 8 1 9 1
M  V30 9 1 10 2
M  V30 10 1 11 2
M  V30 11 1 12 3
M  V30 12 1 13 3
M  V30 13 1 4 14 CFG=3
M  V30 14 1 15 5
M  V30 15 1 16 5
M  V30 16 1 17 5
M  V30 17 1 18 6
M  V30 END BOND
M  V30 END CTAB
M  END
$$$$
R-group 874 (24819-1)
     RDKit          3D

  0  0  0  0  0  0  0  0  0  0999 V3000
M  V30 BEGIN CTAB
M  V30 COUNTS 16 15 0 0 1
M  V30 BEGIN ATOM
M  V30 1 O 73.696600 55.018600 42.112800 0
M  V30 2 C 74.942700 55.650700 41.836500 0
M  V30 3 C 74.663900 57.045400 41.232100 0 CFG=2
M  V30 4 C 73.758200 57.877600 42.158600 0
M  V30 5 C 74.136900 56.989400 39.774600 0
M  V30 6 O 72.873100 56.376800 39.724500 0
M  V30 7 H 75.583200 55.077000 41.170500 0
M  V30 8 H 75.491200 55.743000 42.776100 0
M  V30 9 H 75.626000 57.557900 41.189200 0
M  V30 10 H 72.801200 57.388400 42.325300 0
M  V30 11 H 74.219100 58.023700 43.135800 0
M  V30 12 H 73.547400 58.856800 41.735000 0
M  V30 13 H 74.828000 56.425600 39.148900 0
M  V30 14 H 74.035400 57.975800 39.314300 0
M  V30 15 H 72.869800 55.696400 40.386100 0
M  V30 16 R 73.564900 53.602600 42.004600 0
M  V30 END ATOM
M  V30 BEGIN BOND
M  V30 1 1 2 1
M  V30 2 1 3 2
M  V30 3 1 4 3
M  V30 4 1 5 3
M  V30 5 1 6 5
M  V30 6 1 7 2
M  V30 7 1 8 2
M  V30 8 1 3 9 CFG=3
M  V30 9 1 10 4
M  V30 10 1 11 4
M  V30 11 1 12 4
M  V30 12 1 13 5
M  V30 13 1 14 5
M  V30 14 1 15 6
M  V30 15 1 16 1
M  V30 END BOND
M  V30 END CTAB
M  END
$$$$
R-group 875 (8802-1)
     RDKit          3D

  0  0  0  0  0  0  0  0  0  0999 V3000
M  V30 BEGIN CTAB
M  V30 COUNTS 19 19 0 0 1
M  V30 BEGIN ATOM
M  V30 1 C 72.967700 54.307300 42.216700 0
M  V30 2 C 74.161500 55.165200 42.698800 0 CFG=1
M  V30 3 C 75.334200 55.175000 41.702500 0
M  V30 4 C 74.933700 55.859300 40.413100 0
M  V30 5 C 74.532900 57.258400 40.747200 0
M  V30 6 C 73.639200 57.438000 41.985400 0
M  V30 7 O 72.872400 58.399000 42.107100 0
M  V30 8 N 73.672300 56.501300 42.924500 0
M  V30 9 H 72.508900 54.780800 41.349600 0
M  V30 10 H 72.149700 54.338500 42.925100 0
M  V30 11 H 74.517600 54.854700 43.676800 0
M  V30 12 H 76.183900 55.694600 42.144400 0
M  V30 13 H 75.672000 54.187700 41.462200 0
M  V30 14 H 75.769500 55.913400 39.725900 0
M  V30 15 H 74.125300 55.377200 39.881300 0
M  V30 16 H 75.487700 57.729600 40.973200 0
M  V30 17 H 74.070900 57.701400 39.865600 0
M  V30 18 H 73.099900 56.636200 43.744400 0
M  V30 19 R 73.272200 52.837500 41.883800 0
M  V30 END ATOM
M  V30 BEGIN BOND
M  V30 1 1 2 1
M  V30 2 1 3 2
M  V30 3 1 4 3
M  V30 4 1 5 4
M  V30 5 1 6 5
M  V30 6 2 7 6
M  V30 7 1 8 2
M  V30 8 1 8 6
M  V30 9 1 9 1
M  V30 10 1 10 1
M  V30 11 1 2 11 CFG=1
M  V30 12 1 12 3
M  V30 13 1 13 3
M  V30 14 1 14 4
M  V30 15 1 15 4
M  V30 16 1 16 5
M  V30 17 1 17 5
M  V30 18 1 18 8
M  V30 19 1 19 1
M  V30 END BOND
M  V30 END CTAB
M  END
$$$$
R-group 876 (10839-2)
     RDKit          3D

  0  0  0  0  0  0  0  0  0  0999 V3000
M  V30 BEGIN CTAB
M  V30 COUNTS 13 13 0 0 1
M  V30 BEGIN ATOM
M  V30 1 C 73.946400 55.095000 41.859800 0
M  V30 2 C 73.316100 55.993500 40.777600 0 CFG=1
M  V30 3 C 73.535200 57.499300 40.862000 0
M  V30 4 C 74.578900 57.257700 39.782200 0
M  V30 5 O 74.072700 55.931200 39.545400 0
M  V30 6 H 73.655200 55.460300 42.844500 0
M  V30 7 H 75.030000 55.222300 41.824300 0
M  V30 8 H 72.288800 55.752000 40.523800 0
M  V30 9 H 72.681200 58.091300 40.523300 0
M  V30 10 H 73.947100 57.852300 41.808800 0
M  V30 11 H 74.472100 57.914800 38.926100 0
M  V30 12 H 75.605200 57.246100 40.152900 0
M  V30 13 R 73.605900 53.585400 41.791200 0
M  V30 END ATOM
M  V30 BEGIN BOND
M  V30 1 1 2 1
M  V30 2 1 3 2
M  V30 3 1 4 3
M  V30 4 1 5 2
M  V30 5 1 5 4
M  V30 6 1 6 1
M  V30 7 1 7 1
M  V30 8 1 2 8 CFG=3
M  V30 9 1 9 3
M  V30 10 1 10 3
M  V30 11 1 11 4
M  V30 12 1 12 4
M  V30 13 1 13 1
M  V30 END BOND
M  V30 END CTAB
M  END
$$$$
R-group 877 (6601-1)
     RDKit          3D

  0  0  0  0  0  0  0  0  0  0999 V3000
M  V30 BEGIN CTAB
M  V30 COUNTS 9 8 0 0 1
M  V30 BEGIN ATOM
M  V30 1 S 74.211700 55.584100 41.677500 0 CFG=1
M  V30 2 C 73.585500 56.241300 43.263400 0
M  V30 3 N 73.435800 56.310600 40.524700 0
M  V30 4 O 75.672100 55.658000 41.723900 0
M  V30 5 H 72.503400 56.129700 43.324700 0
M  V30 6 H 74.039900 55.658000 44.070500 0
M  V30 7 H 73.860000 57.292300 43.340100 0
M  V30 8 H 73.686600 57.297000 40.433300 0
M  V30 9 R 73.612100 53.807600 41.762700 0
M  V30 END ATOM
M  V30 BEGIN BOND
M  V30 1 1 2 1
M  V30 2 2 3 1
M  V30 3 2 4 1
M  V30 4 1 5 2
M  V30 5 1 6 2
M  V30 6 1 7 2
M  V30 7 1 8 3
M  V30 8 1 1 9 CFG=1
M  V30 END BOND
M  V30 END CTAB
M  END
$$$$
R-group 878 (1432-1)
     RDKit          3D

  0  0  0  0  0  0  0  0  0  0999 V3000
M  V30 BEGIN CTAB
M  V30 COUNTS 15 14 0 0 1
M  V30 BEGIN ATOM
M  V30 1 C 73.234900 57.523500 43.048000 0
M  V30 2 C 73.298200 55.977900 43.113800 0
M  V30 3 C 73.835500 55.259500 41.863200 0 CFG=1
M  V30 4 O 75.272200 55.313200 41.815300 0
M  V30 5 C 75.849700 56.578800 41.631800 0
M  V30 6 H 72.976200 57.927200 44.025500 0
M  V30 7 H 74.141200 58.059200 42.849300 0
M  V30 8 H 72.585300 57.870700 42.238200 0
M  V30 9 H 72.262400 55.637500 43.307100 0
M  V30 10 H 73.884100 55.649500 43.977000 0
M  V30 11 H 73.428000 55.760000 40.980400 0
M  V30 12 H 76.918500 56.526600 41.584700 0
M  V30 13 H 75.426400 57.098800 40.753100 0
M  V30 14 H 75.807900 57.154900 42.545400 0
M  V30 15 R 73.483400 53.751500 41.755900 0
M  V30 END ATOM
M  V30 BEGIN BOND
M  V30 1 1 2 1
M  V30 2 1 3 2
M  V30 3 1 4 3
M  V30 4 1 5 4
M  V30 5 1 6 1
M  V30 6 1 7 1
M  V30 7 1 8 1
M  V30 8 1 9 2
M  V30 9 1 10 2
M  V30 10 1 3 11 CFG=3
M  V30 11 1 12 5
M  V30 12 1 13 5
M  V30 13 1 14 5
M  V30 14 1 15 3
M  V30 END BOND
M  V30 END CTAB
M  END
$$$$
R-group 879 (16175-2)
     RDKit          3D

  0  0  0  0  0  0  0  0  0  0999 V3000
M  V30 BEGIN CTAB
M  V30 COUNTS 13 13 0 0 1
M  V30 BEGIN ATOM
M  V30 1 O 73.674300 54.681800 41.699600 0
M  V30 2 C 73.440600 55.314900 42.925900 0
M  V30 3 C 73.911700 56.713100 42.889900 0 CFG=2
M  V30 4 C 74.329400 57.461600 41.656500 0
M  V30 5 C 75.369300 56.859100 42.571600 0
M  V30 6 F 76.074300 57.646600 43.448200 0
M  V30 7 F 76.070700 55.767600 42.092000 0
M  V30 8 H 72.381800 55.279600 43.177500 0
M  V30 9 H 74.065800 54.872900 43.704000 0
M  V30 10 H 73.535600 57.322400 43.710000 0
M  V30 11 H 74.166300 57.000700 40.682600 0
M  V30 12 H 74.075700 58.509600 41.726300 0
M  V30 13 R 73.435600 53.290900 41.740500 0
M  V30 END ATOM
M  V30 BEGIN BOND
M  V30 1 1 2 1
M  V30 2 1 3 2
M  V30 3 1 4 3
M  V30 4 1 5 3
M  V30 5 1 5 4
M  V30 6 1 6 5
M  V30 7 1 7 5
M  V30 8 1 8 2
M  V30 9 1 9 2
M  V30 10 1 3 10 CFG=1
M  V30 11 1 11 4
M  V30 12 1 12 4
M  V30 13 1 13 1
M  V30 END BOND
M  V30 END CTAB
M  END
$$$$
R-group 880 (9320-1)
     RDKit          3D

  0  0  0  0  0  0  0  0  0  0999 V3000
M  V30 BEGIN CTAB
M  V30 COUNTS 17 16 0 0 1
M  V30 BEGIN ATOM
M  V30 1 C 73.804500 54.934200 42.310500 0
M  V30 2 C 74.992000 55.667100 41.657100 0
M  V30 3 C 74.959600 57.174500 41.907900 0
M  V30 4 C 73.598000 57.815600 41.592300 0
M  V30 5 C 73.075800 57.661900 40.150500 0
M  V30 6 F 72.944500 56.410200 39.723800 0
M  V30 7 H 72.872500 55.373000 41.991200 0
M  V30 8 H 73.847200 55.117000 43.377200 0
M  V30 9 H 75.937300 55.257300 42.012600 0
M  V30 10 H 74.986700 55.539200 40.581200 0
M  V30 11 H 75.200700 57.361300 42.956200 0
M  V30 12 H 75.744100 57.657500 41.323300 0
M  V30 13 H 72.850500 57.473000 42.305500 0
M  V30 14 H 73.671600 58.870800 41.803600 0
M  V30 15 H 72.069100 58.057200 40.132900 0
M  V30 16 H 73.672000 58.193000 39.408300 0
M  V30 17 R 73.635500 53.439100 42.010800 0
M  V30 END ATOM
M  V30 BEGIN BOND
M  V30 1 1 2 1
M  V30 2 1 3 2
M  V30 3 1 4 3
M  V30 4 1 5 4
M  V30 5 1 6 5
M  V30 6 1 7 1
M  V30 7 1 8 1
M  V30 8 1 9 2
M  V30 9 1 10 2
M  V30 10 1 11 3
M  V30 11 1 12 3
M  V30 12 1 13 4
M  V30 13 1 14 4
M  V30 14 1 15 5
M  V30 15 1 16 5
M  V30 16 1 17 1
M  V30 END BOND
M  V30 END CTAB
M  END
$$$$
R-group 881 (4214-1)
     RDKit          3D

  0  0  0  0  0  0  0  0  0  0999 V3000
M  V30 BEGIN CTAB
M  V30 COUNTS 18 17 0 0 1
M  V30 BEGIN ATOM
M  V30 1 O 73.771100 54.787500 42.513600 0
M  V30 2 C 75.000400 55.446200 42.244400 0
M  V30 3 C 74.675800 56.930800 42.076100 0
M  V30 4 C 73.569700 57.168300 41.030700 0
M  V30 5 C 74.041200 57.033200 39.575900 0
M  V30 6 C 72.730100 58.415400 41.360300 0
M  V30 7 H 75.503000 55.078000 41.356900 0
M  V30 8 H 75.672900 55.296900 43.087200 0
M  V30 9 H 75.575200 57.486800 41.811000 0
M  V30 10 H 74.349400 57.313400 43.044400 0
M  V30 11 H 72.872300 56.349600 41.104800 0
M  V30 12 H 74.888800 57.657900 39.325900 0
M  V30 13 H 73.226400 57.257700 38.891200 0
M  V30 14 H 74.349500 56.008900 39.368700 0
M  V30 15 H 73.300900 59.257200 41.724700 0
M  V30 16 H 72.107600 58.736600 40.528500 0
M  V30 17 H 72.072200 58.195000 42.193600 0
M  V30 18 R 73.631500 53.413300 42.185200 0
M  V30 END ATOM
M  V30 BEGIN BOND
M  V30 1 1 2 1
M  V30 2 1 3 2
M  V30 3 1 4 3
M  V30 4 1 5 4
M  V30 5 1 6 4
M  V30 6 1 7 2
M  V30 7 1 8 2
M  V30 8 1 9 3
M  V30 9 1 10 3
M  V30 10 1 11 4
M  V30 11 1 12 5
M  V30 12 1 13 5
M  V30 13 1 14 5
M  V30 14 1 15 6
M  V30 15 1 16 6
M  V30 16 1 17 6
M  V30 17 1 18 1
M  V30 END BOND
M  V30 END CTAB
M  END
$$$$
R-group 882 (16222-1)
     RDKit          3D

  0  0  0  0  0  0  0  0  0  0999 V3000
M  V30 BEGIN CTAB
M  V30 COUNTS 19 18 0 0 1
M  V30 BEGIN ATOM
M  V30 1 C 72.978900 58.277300 42.070200 0
M  V30 2 O 74.071900 57.446000 42.438100 0
M  V30 3 C 74.853400 56.790500 41.430700 0
M  V30 4 C 74.225000 56.693400 40.017400 0
M  V30 5 C 76.261700 57.408000 41.338200 0
M  V30 6 C 74.994400 55.390400 42.025900 0
M  V30 7 O 73.688900 54.841400 42.126600 0
M  V30 8 H 72.362400 58.451800 42.949900 0
M  V30 9 H 72.346700 57.831700 41.310000 0
M  V30 10 H 73.277000 59.257200 41.724800 0
M  V30 11 H 74.871600 56.133900 39.343400 0
M  V30 12 H 73.260800 56.187100 40.027400 0
M  V30 13 H 74.072200 57.663200 39.556800 0
M  V30 14 H 76.871300 56.798700 40.675900 0
M  V30 15 H 76.293700 58.412000 40.926000 0
M  V30 16 H 76.751300 57.440600 42.311000 0
M  V30 17 H 75.661900 54.797800 41.406900 0
M  V30 18 H 75.443600 55.426400 43.019900 0
M  V30 19 R 73.533700 53.441200 41.989700 0
M  V30 END ATOM
M  V30 BEGIN BOND
M  V30 1 1 2 1
M  V30 2 1 3 2
M  V30 3 1 4 3
M  V30 4 1 5 3
M  V30 5 1 6 3
M  V30 6 1 7 6
M  V30 7 1 8 1
M  V30 8 1 9 1
M  V30 9 1 10 1
M  V30 10 1 11 4
M  V30 11 1 12 4
M  V30 12 1 13 4
M  V30 13 1 14 5
M  V30 14 1 15 5
M  V30 15 1 16 5
M  V30 16 1 17 6
M  V30 17 1 18 6
M  V30 18 1 19 7
M  V30 END BOND
M  V30 END CTAB
M  END
$$$$
R-group 883 (19160-1)
     RDKit          3D

  0  0  0  0  0  0  0  0  0  0999 V3000
M  V30 BEGIN CTAB
M  V30 COUNTS 15 14 0 0 1
M  V30 BEGIN ATOM
M  V30 1 C 76.637700 57.285300 41.027500 0
M  V30 2 C 75.764300 56.042000 40.815200 0
M  V30 3 C 74.698100 55.735400 41.910000 0 CFG=1
M  V30 4 C 73.672400 56.873000 41.802300 0
M  V30 5 N 73.272400 57.462800 42.924700 0
M  V30 6 O 73.272200 57.257800 40.705400 0
M  V30 7 H 77.415400 57.340200 40.265500 0
M  V30 8 H 76.072900 58.197700 40.927100 0
M  V30 9 H 77.116200 57.284700 42.005400 0
M  V30 10 H 76.472200 55.258000 40.733500 0
M  V30 11 H 75.302200 56.107200 39.829100 0
M  V30 12 H 75.192800 55.842200 42.876600 0
M  V30 13 H 73.599000 57.133100 43.820300 0
M  V30 14 H 72.617200 58.226500 42.861700 0
M  V30 15 R 74.014600 54.296100 41.894500 0
M  V30 END ATOM
M  V30 BEGIN BOND
M  V30 1 1 2 1
M  V30 2 1 3 2
M  V30 3 1 4 3
M  V30 4 1 5 4
M  V30 5 2 6 4
M  V30 6 1 7 1
M  V30 7 1 8 1
M  V30 8 1 9 1
M  V30 9 1 10 2
M  V30 10 1 11 2
M  V30 11 1 3 12 CFG=1
M  V30 12 1 13 5
M  V30 13 1 14 5
M  V30 14 1 15 3
M  V30 END BOND
M  V30 END CTAB
M  END
$$$$
R-group 884 (18309-1)
     RDKit          3D

  0  0  0  0  0  0  0  0  0  0999 V3000
M  V30 BEGIN CTAB
M  V30 COUNTS 18 17 0 0 1
M  V30 BEGIN ATOM
M  V30 1 C 76.467500 57.453300 40.526500 0
M  V30 2 O 76.013300 56.970700 41.778200 0
M  V30 3 C 75.631300 55.611400 41.802800 0
M  V30 4 C 74.103200 55.385600 41.854600 0
M  V30 5 C 73.577300 56.057200 43.144000 0
M  V30 6 C 73.489800 56.132100 40.648800 0
M  V30 7 H 76.854400 58.458000 40.657600 0
M  V30 8 H 75.673800 57.488900 39.782700 0
M  V30 9 H 77.272200 56.851300 40.124800 0
M  V30 10 H 76.072200 55.064800 40.977400 0
M  V30 11 H 76.072000 55.257900 42.727600 0
M  V30 12 H 72.505700 55.914200 43.287100 0
M  V30 13 H 74.072200 55.652200 44.023500 0
M  V30 14 H 73.762300 57.132300 43.144900 0
M  V30 15 H 72.442400 55.912100 40.524500 0
M  V30 16 H 73.572100 57.214000 40.756600 0
M  V30 17 H 73.977400 55.865100 39.711300 0
M  V30 18 R 73.729800 53.838400 41.867300 0
M  V30 END ATOM
M  V30 BEGIN BOND
M  V30 1 1 2 1
M  V30 2 1 3 2
M  V30 3 1 4 3
M  V30 4 1 5 4
M  V30 5 1 6 4
M  V30 6 1 7 1
M  V30 7 1 8 1
M  V30 8 1 9 1
M  V30 9 1 10 3
M  V30 10 1 11 3
M  V30 11 1 12 5
M  V30 12 1 13 5
M  V30 13 1 14 5
M  V30 14 1 15 6
M  V30 15 1 16 6
M  V30 16 1 17 6
M  V30 17 1 18 4
M  V30 END BOND
M  V30 END CTAB
M  END
$$$$
R-group 885 (657-1)
     RDKit          3D

  0  0  0  0  0  0  0  0  0  0999 V3000
M  V30 BEGIN CTAB
M  V30 COUNTS 12 11 0 0 1
M  V30 BEGIN ATOM
M  V30 1 C 73.579300 57.830700 41.796900 0
M  V30 2 C 74.888300 57.089000 42.077400 0
M  V30 3 C 74.844800 55.669700 41.520300 0
M  V30 4 O 73.759800 54.982900 42.129100 0
M  V30 5 H 73.645000 58.859200 42.124900 0
M  V30 6 H 73.339800 57.835900 40.732800 0
M  V30 7 H 72.751800 57.368100 42.332400 0
M  V30 8 H 75.075900 57.065500 43.151600 0
M  V30 9 H 75.722700 57.628600 41.626100 0
M  V30 10 H 75.792300 55.168000 41.711100 0
M  V30 11 H 74.700000 55.735500 40.444400 0
M  V30 12 R 73.597200 53.599700 41.834200 0
M  V30 END ATOM
M  V30 BEGIN BOND
M  V30 1 1 2 1
M  V30 2 1 3 2
M  V30 3 1 4 3
M  V30 4 1 5 1
M  V30 5 1 6 1
M  V30 6 1 7 1
M  V30 7 1 8 2
M  V30 8 1 9 2
M  V30 9 1 10 3
M  V30 10 1 11 3
M  V30 11 1 12 4
M  V30 END BOND
M  V30 END CTAB
M  END
$$$$
R-group 886 (3064-1)
     RDKit          3D

  0  0  0  0  0  0  0  0  0  0999 V3000
M  V30 BEGIN CTAB
M  V30 COUNTS 17 17 0 0 1
M  V30 BEGIN ATOM
M  V30 1 C 73.549800 54.921800 41.643400 0 CFG=1
M  V30 2 C 73.008200 55.573400 42.924700 0
M  V30 3 C 73.146400 57.084000 42.921700 0
M  V30 4 N 74.575500 57.253300 42.875500 0
M  V30 5 C 75.125800 56.921100 41.578700 0
M  V30 6 C 75.015300 55.406000 41.508400 0
M  V30 7 F 75.672500 54.958400 42.566500 0
M  V30 8 F 75.659800 55.017000 40.417700 0
M  V30 9 H 72.973600 55.326000 40.811900 0
M  V30 10 H 72.000400 55.256500 43.184700 0
M  V30 11 H 73.672300 55.257200 43.724700 0
M  V30 12 H 72.760300 57.501800 43.852600 0
M  V30 13 H 72.644700 57.577100 42.086700 0
M  V30 14 H 74.961500 58.054400 43.325200 0
M  V30 15 H 76.170100 57.229900 41.535800 0
M  V30 16 H 74.587200 57.415900 40.769100 0
M  V30 17 R 73.340500 53.382900 41.701800 0
M  V30 END ATOM
M  V30 BEGIN BOND
M  V30 1 1 2 1
M  V30 2 1 3 2
M  V30 3 1 4 3
M  V30 4 1 5 4
M  V30 5 1 6 1
M  V30 6 1 6 5
M  V30 7 1 7 6
M  V30 8 1 8 6
M  V30 9 1 1 9 CFG=3
M  V30 10 1 10 2
M  V30 11 1 11 2
M  V30 12 1 12 3
M  V30 13 1 13 3
M  V30 14 1 14 4
M  V30 15 1 15 5
M  V30 16 1 16 5
M  V30 17 1 17 1
M  V30 END BOND
M  V30 END CTAB
M  END
$$$$
R-group 887 (43411-1)
     RDKit          3D

  0  0  0  0  0  0  0  0  0  0999 V3000
M  V30 BEGIN CTAB
M  V30 COUNTS 17 18 0 0 1
M  V30 BEGIN ATOM
M  V30 1 C 73.979500 55.077900 42.278300 0 CFG=1
M  V30 2 C 75.394400 55.672500 42.368800 0
M  V30 3 C 75.176000 57.089900 41.838000 0 CFG=2
M  V30 4 C 74.190800 57.913800 42.670800 0
M  V30 5 C 72.872300 57.277700 42.421200 0
M  V30 6 C 73.272400 56.167400 41.452400 0 CFG=1
M  V30 7 O 74.340700 56.778600 40.749700 0
M  V30 8 H 73.580000 55.061000 43.291400 0
M  V30 9 H 75.814100 55.655600 43.376800 0
M  V30 10 H 76.072400 55.155000 41.696100 0
M  V30 11 H 76.081400 57.639100 41.558100 0
M  V30 12 H 74.454200 58.052700 43.720500 0
M  V30 13 H 74.072000 58.857500 42.176600 0
M  V30 14 H 72.193900 58.020000 41.984400 0
M  V30 15 H 72.472400 56.903300 43.360900 0
M  V30 16 H 72.519500 55.825600 40.737700 0
M  V30 17 R 73.839700 53.644000 41.725500 0
M  V30 END ATOM
M  V30 BEGIN BOND
M  V30 1 1 2 1
M  V30 2 1 3 2
M  V30 3 1 4 3
M  V30 4 1 5 4
M  V30 5 1 6 1
M  V30 6 1 6 5
M  V30 7 1 7 3
M  V30 8 1 7 6
M  V30 9 1 1 8 CFG=1
M  V30 10 1 9 2
M  V30 11 1 10 2
M  V30 12 1 3 11 CFG=3
M  V30 13 1 12 4
M  V30 14 1 13 4
M  V30 15 1 14 5
M  V30 16 1 15 5
M  V30 17 1 6 16 CFG=3
M  V30 18 1 17 1
M  V30 END BOND
M  V30 END CTAB
M  END
$$$$
R-group 888 (82-1)
     RDKit          3D

  0  0  0  0  0  0  0  0  0  0999 V3000
M  V30 BEGIN CTAB
M  V30 COUNTS 9 8 0 0 1
M  V30 BEGIN ATOM
M  V30 1 C 74.810900 55.346600 42.173400 0
M  V30 2 C 74.086400 56.605400 41.703600 0
M  V30 3 N 74.034000 56.844000 40.392400 0
M  V30 4 O 73.627000 57.391400 42.523200 0
M  V30 5 H 75.105600 55.522600 43.209000 0
M  V30 6 H 75.748400 55.259900 41.625100 0
M  V30 7 H 74.444400 56.191400 39.742500 0
M  V30 8 H 73.587200 57.685300 40.058300 0
M  V30 9 R 73.998000 54.024600 42.090100 0
M  V30 END ATOM
M  V30 BEGIN BOND
M  V30 1 1 2 1
M  V30 2 1 3 2
M  V30 3 2 4 2
M  V30 4 1 5 1
M  V30 5 1 6 1
M  V30 6 1 7 3
M  V30 7 1 8 3
M  V30 8 1 9 1
M  V30 END BOND
M  V30 END CTAB
M  END
$$$$
R-group 889 (17374-1)
     RDKit          3D

  0  0  0  0  0  0  0  0  0  0999 V3000
M  V30 BEGIN CTAB
M  V30 COUNTS 12 11 0 0 1
M  V30 BEGIN ATOM
M  V30 1 C 73.852300 55.198500 42.257400 0
M  V30 2 O 75.239400 55.423200 42.078400 0
M  V30 3 C 75.617300 56.780800 41.983000 0
M  V30 4 C 76.045200 57.027700 40.534000 0
M  V30 5 F 74.987200 57.248300 39.752500 0
M  V30 6 F 76.878000 58.058600 40.466900 0
M  V30 7 H 73.272400 55.893700 41.654100 0
M  V30 8 H 73.613600 55.391300 43.306600 0
M  V30 9 H 74.842600 57.474900 42.313200 0
M  V30 10 H 76.471500 56.923800 42.643500 0
M  V30 11 H 76.591400 56.176500 40.132100 0
M  V30 12 R 73.519000 53.738700 41.864600 0
M  V30 END ATOM
M  V30 BEGIN BOND
M  V30 1 1 2 1
M  V30 2 1 3 2
M  V30 3 1 4 3
M  V30 4 1 5 4
M  V30 5 1 6 4
M  V30 6 1 7 1
M  V30 7 1 8 1
M  V30 8 1 9 3
M  V30 9 1 10 3
M  V30 10 1 11 4
M  V30 11 1 12 1
M  V30 END BOND
M  V30 END CTAB
M  END
$$$$
R-group 890 (11011-7)
     RDKit          3D

  0  0  0  0  0  0  0  0  0  0999 V3000
M  V30 BEGIN CTAB
M  V30 COUNTS 21 22 0 0 1
M  V30 BEGIN ATOM
M  V30 1 C 74.812300 55.028000 41.867100 0 CFG=1
M  V30 2 C 74.662300 56.101800 40.763400 0 CFG=1
M  V30 3 C 73.296500 56.784200 40.655200 0
M  V30 4 C 73.249000 57.585100 41.947600 0
M  V30 5 C 74.607100 57.282500 42.559300 0 CFG=2
M  V30 6 O 75.400900 57.130800 41.392000 0
M  V30 7 C 74.707200 55.874700 43.147500 0 CFG=2
M  V30 8 C 75.931900 55.818900 44.084300 0
M  V30 9 O 75.778000 54.848000 45.083700 0
M  V30 10 H 75.849100 54.723300 41.753200 0
M  V30 11 H 75.082400 55.836400 39.795900 0
M  V30 12 H 73.288700 57.461200 39.800100 0
M  V30 13 H 72.472400 56.091100 40.524000 0
M  V30 14 H 72.472400 57.283300 42.638000 0
M  V30 15 H 73.136200 58.649700 41.738900 0
M  V30 16 H 74.874100 58.058000 43.280900 0
M  V30 17 H 73.796400 55.659800 43.705800 0
M  V30 18 H 76.871400 55.661000 43.597500 0
M  V30 19 H 76.072300 56.797600 44.524600 0
M  V30 20 H 76.535600 54.862800 45.649300 0
M  V30 21 R 73.950200 53.723100 41.836500 0
M  V30 END ATOM
M  V30 BEGIN BOND
M  V30 1 1 2 1
M  V30 2 1 3 2
M  V30 3 1 4 3
M  V30 4 1 5 4
M  V30 5 1 6 2
M  V30 6 1 6 5
M  V30 7 1 7 1
M  V30 8 1 7 5
M  V30 9 1 8 7
M  V30 10 1 9 8
M  V30 11 1 1 10 CFG=3
M  V30 12 1 2 11 CFG=3
M  V30 13 1 12 3
M  V30 14 1 13 3
M  V30 15 1 14 4
M  V30 16 1 15 4
M  V30 17 1 5 16 CFG=1
M  V30 18 1 7 17 CFG=1
M  V30 19 1 18 8
M  V30 20 1 19 8
M  V30 21 1 20 9
M  V30 22 1 21 1
M  V30 END BOND
M  V30 END CTAB
M  END
$$$$
R-group 891 (15348-1)
     RDKit          3D

  0  0  0  0  0  0  0  0  0  0999 V3000
M  V30 BEGIN CTAB
M  V30 COUNTS 12 11 0 0 1
M  V30 BEGIN ATOM
M  V30 1 C 73.809700 54.889600 41.662200 0 CFG=2
M  V30 2 C 75.273400 55.316800 41.382200 0
M  V30 3 C 73.309200 55.593100 42.914100 0
M  V30 4 C 73.276600 56.980700 42.502500 0
M  V30 5 N 73.272200 58.058100 42.124900 0
M  V30 6 H 73.217600 55.271400 40.829400 0
M  V30 7 H 75.883800 55.256500 42.280700 0
M  V30 8 H 75.763300 54.737100 40.609700 0
M  V30 9 H 75.327200 56.351800 41.041300 0
M  V30 10 H 74.002100 55.478200 43.747600 0
M  V30 11 H 72.307500 55.283200 43.203600 0
M  V30 12 R 73.522200 53.384900 41.727600 0
M  V30 END ATOM
M  V30 BEGIN BOND
M  V30 1 1 2 1
M  V30 2 1 3 1
M  V30 3 1 4 3
M  V30 4 3 5 4
M  V30 5 1 1 6 CFG=3
M  V30 6 1 7 2
M  V30 7 1 8 2
M  V30 8 1 9 2
M  V30 9 1 10 3
M  V30 10 1 11 3
M  V30 11 1 12 1
M  V30 END BOND
M  V30 END CTAB
M  END
$$$$
R-group 892 (106-1)
     RDKit          3D

  0  0  0  0  0  0  0  0  0  0999 V3000
M  V30 BEGIN CTAB
M  V30 COUNTS 6 5 0 0 1
M  V30 BEGIN ATOM
M  V30 1 C 74.808800 55.817400 41.744100 0
M  V30 2 O 73.690300 55.089600 42.222700 0
M  V30 3 H 74.880000 56.759000 42.287700 0
M  V30 4 H 75.743700 55.279100 41.892800 0
M  V30 5 H 74.697300 56.060500 40.687200 0
M  V30 6 R 73.542500 53.733900 41.804400 0
M  V30 END ATOM
M  V30 BEGIN BOND
M  V30 1 1 2 1
M  V30 2 1 3 1
M  V30 3 1 4 1
M  V30 4 1 5 1
M  V30 5 1 6 2
M  V30 END BOND
M  V30 END CTAB
M  END
$$$$
R-group 893 (1356-2)
     RDKit          3D

  0  0  0  0  0  0  0  0  0  0999 V3000
M  V30 BEGIN CTAB
M  V30 COUNTS 15 14 0 0 1
M  V30 BEGIN ATOM
M  V30 1 C 73.932800 55.424200 41.702900 0 CFG=1
M  V30 2 O 73.673200 56.058300 42.924600 0
M  V30 3 C 75.287000 55.962600 41.160800 0
M  V30 4 C 76.165100 56.701400 42.196200 0
M  V30 5 C 75.013000 56.908300 39.985200 0
M  V30 6 H 73.143000 55.819300 41.064200 0
M  V30 7 H 75.894400 55.139900 40.795700 0
M  V30 8 H 75.664100 57.562000 42.635100 0
M  V30 9 H 77.066100 57.081000 41.724700 0
M  V30 10 H 76.466200 56.057500 43.018900 0
M  V30 11 H 74.254900 57.649800 40.245800 0
M  V30 12 H 75.917000 57.454700 39.725500 0
M  V30 13 H 74.653100 56.374700 39.104200 0
M  V30 14 H 73.763800 56.991200 42.804600 0
M  V30 15 R 73.665200 53.882400 41.769300 0
M  V30 END ATOM
M  V30 BEGIN BOND
M  V30 1 1 2 1
M  V30 2 1 3 1
M  V30 3 1 4 3
M  V30 4 1 5 3
M  V30 5 1 1 6 CFG=3
M  V30 6 1 7 3
M  V30 7 1 8 4
M  V30 8 1 9 4
M  V30 9 1 10 4
M  V30 10 1 11 5
M  V30 11 1 12 5
M  V30 12 1 13 5
M  V30 13 1 14 2
M  V30 14 1 15 1
M  V30 END BOND
M  V30 END CTAB
M  END
$$$$
R-group 894 (2965-1)
     RDKit          3D

  0  0  0  0  0  0  0  0  0  0999 V3000
M  V30 BEGIN CTAB
M  V30 COUNTS 12 12 0 0 1
M  V30 BEGIN ATOM
M  V30 1 N 74.145200 54.767900 41.631100 0
M  V30 2 C 75.063300 55.454500 40.925500 0
M  V30 3 N 75.125200 56.748900 41.210300 0
M  V30 4 C 74.185500 56.856600 42.219200 0
M  V30 5 C 73.744900 58.075500 42.869800 0
M  V30 6 C 73.672200 55.657400 42.533600 0
M  V30 7 H 75.734800 55.022400 40.200900 0
M  V30 8 H 72.830100 57.930100 43.443300 0
M  V30 9 H 74.496600 58.454000 43.554300 0
M  V30 10 H 73.538800 58.851400 42.124800 0
M  V30 11 H 72.938200 55.394400 43.281900 0
M  V30 12 R 73.734200 53.392800 41.674300 0
M  V30 END ATOM
M  V30 BEGIN BOND
M  V30 1 1 2 1
M  V30 2 2 3 2
M  V30 3 1 4 3
M  V30 4 1 5 4
M  V30 5 1 6 1
M  V30 6 2 6 4
M  V30 7 1 7 2
M  V30 8 1 8 5
M  V30 9 1 9 5
M  V30 10 1 10 5
M  V30 11 1 11 6
M  V30 12 1 12 1
M  V30 END BOND
M  V30 END CTAB
M  END
$$$$
R-group 895 (21630-2)
     RDKit          3D

  0  0  0  0  0  0  0  0  0  0999 V3000
M  V30 BEGIN CTAB
M  V30 COUNTS 13 12 0 0 1
M  V30 BEGIN ATOM
M  V30 1 N 74.033400 54.939100 41.829700 0
M  V30 2 C 74.072900 55.953400 40.950800 0
M  V30 3 O 73.690500 55.918700 39.782300 0
M  V30 4 C 74.624700 57.248700 41.520000 0 CFG=2
M  V30 5 C 76.117200 57.390000 41.170900 0
M  V30 6 O 74.420900 57.258000 42.916000 0
M  V30 7 H 74.039000 58.057500 41.089700 0
M  V30 8 H 76.303700 57.150300 40.126000 0
M  V30 9 H 76.472800 58.405400 41.324600 0
M  V30 10 H 76.733100 56.721800 41.771600 0
M  V30 11 H 74.363100 55.214800 42.746500 0
M  V30 12 H 73.489600 57.293000 43.084700 0
M  V30 13 R 73.613200 53.546500 41.726500 0
M  V30 END ATOM
M  V30 BEGIN BOND
M  V30 1 1 2 1
M  V30 2 2 3 2
M  V30 3 1 4 2
M  V30 4 1 5 4
M  V30 5 1 6 4
M  V30 6 1 4 7 CFG=3
M  V30 7 1 8 5
M  V30 8 1 9 5
M  V30 9 1 10 5
M  V30 10 1 11 1
M  V30 11 1 12 6
M  V30 12 1 13 1
M  V30 END BOND
M  V30 END CTAB
M  END
$$$$
R-group 896 (28255-1)
     RDKit          3D

  0  0  0  0  0  0  0  0  0  0999 V3000
M  V30 BEGIN CTAB
M  V30 COUNTS 17 17 0 0 1
M  V30 BEGIN ATOM
M  V30 1 C 73.674700 54.587800 42.320100 0
M  V30 2 N 74.854800 54.999500 41.589300 0
M  V30 3 C 74.697800 56.368100 41.212100 0
M  V30 4 C 73.758100 56.499100 40.018700 0
M  V30 5 F 74.471800 56.458000 38.924500 0
M  V30 6 F 72.827900 55.563600 39.865200 0
M  V30 7 F 73.149600 57.658400 40.125900 0
M  V30 8 C 74.727600 57.387700 42.318500 0
M  V30 9 C 75.907700 57.258300 41.380500 0
M  V30 10 H 72.777300 55.099700 42.012200 0
M  V30 11 H 73.836300 54.882200 43.334900 0
M  V30 12 H 74.937800 54.428800 40.759600 0
M  V30 13 H 74.071300 58.250700 42.233200 0
M  V30 14 H 74.874400 57.025100 43.325900 0
M  V30 15 H 76.820300 56.811100 41.781900 0
M  V30 16 H 76.081100 58.051400 40.659000 0
M  V30 17 R 73.483400 53.088600 42.163200 0
M  V30 END ATOM
M  V30 BEGIN BOND
M  V30 1 1 2 1
M  V30 2 1 3 2
M  V30 3 1 4 3
M  V30 4 1 5 4
M  V30 5 1 6 4
M  V30 6 1 7 4
M  V30 7 1 8 3
M  V30 8 1 9 3
M  V30 9 1 9 8
M  V30 10 1 10 1
M  V30 11 1 11 1
M  V30 12 1 12 2
M  V30 13 1 13 8
M  V30 14 1 14 8
M  V30 15 1 15 9
M  V30 16 1 16 9
M  V30 17 1 17 1
M  V30 END BOND
M  V30 END CTAB
M  END
$$$$
R-group 897 (6754-1)
     RDKit          3D

  0  0  0  0  0  0  0  0  0  0999 V3000
M  V30 BEGIN CTAB
M  V30 COUNTS 10 10 0 0 1
M  V30 BEGIN ATOM
M  V30 1 C 74.142100 55.034700 42.070900 0
M  V30 2 C 73.672600 56.157100 42.693800 0
M  V30 3 N 74.466900 57.224700 42.331400 0
M  V30 4 C 75.391700 56.678700 41.555100 0
M  V30 5 N 76.471500 57.258100 40.926800 0
M  V30 6 O 75.263200 55.353200 41.357700 0
M  V30 7 H 72.822800 56.275500 43.349500 0
M  V30 8 H 76.699800 58.229300 41.073700 0
M  V30 9 H 77.074900 56.725100 40.317000 0
M  V30 10 R 73.688000 53.616600 42.046500 0
M  V30 END ATOM
M  V30 BEGIN BOND
M  V30 1 2 2 1
M  V30 2 1 3 2
M  V30 3 2 4 3
M  V30 4 1 5 4
M  V30 5 1 6 1
M  V30 6 1 6 4
M  V30 7 1 7 2
M  V30 8 1 8 5
M  V30 9 1 9 5
M  V30 10 1 10 1
M  V30 END BOND
M  V30 END CTAB
M  END
$$$$
R-group 898 (7515-1)
     RDKit          3D

  0  0  0  0  0  0  0  0  0  0999 V3000
M  V30 BEGIN CTAB
M  V30 COUNTS 10 9 0 0 1
M  V30 BEGIN ATOM
M  V30 1 N 73.949100 54.960300 42.124600 0
M  V30 2 C 74.072300 56.042600 41.340200 0
M  V30 3 O 73.758200 56.115600 40.153300 0
M  V30 4 C 74.648000 57.258100 42.046900 0
M  V30 5 O 75.672300 56.857600 42.924700 0
M  V30 6 H 75.075000 57.942500 41.324700 0
M  V30 7 H 73.862600 57.782100 42.592700 0
M  V30 8 H 74.260500 55.136100 43.070200 0
M  V30 9 H 76.024300 57.622700 43.361400 0
M  V30 10 R 73.589100 53.567800 41.859300 0
M  V30 END ATOM
M  V30 BEGIN BOND
M  V30 1 1 2 1
M  V30 2 2 3 2
M  V30 3 1 4 2
M  V30 4 1 5 4
M  V30 5 1 6 4
M  V30 6 1 7 4
M  V30 7 1 8 1
M  V30 8 1 9 5
M  V30 9 1 10 1
M  V30 END BOND
M  V30 END CTAB
M  END
$$$$
R-group 899 (6654-2)
     RDKit          3D

  0  0  0  0  0  0  0  0  0  0999 V3000
M  V30 BEGIN CTAB
M  V30 COUNTS 9 8 0 0 1
M  V30 BEGIN ATOM
M  V30 1 C 74.346600 55.244100 41.732000 0 CFG=2
M  V30 2 C 74.285100 56.051900 43.034100 0
M  V30 3 C 73.742000 56.019400 40.635400 0
M  V30 4 N 73.272300 56.624500 39.769200 0
M  V30 5 H 75.396300 55.173100 41.444400 0
M  V30 6 H 74.603900 57.081700 42.869800 0
M  V30 7 H 73.273700 56.078400 43.440700 0
M  V30 8 H 74.947400 55.633600 43.788600 0
M  V30 9 R 73.782500 53.797000 41.859500 0
M  V30 END ATOM
M  V30 BEGIN BOND
M  V30 1 1 2 1
M  V30 2 1 3 1
M  V30 3 3 4 3
M  V30 4 1 1 5 CFG=3
M  V30 5 1 6 2
M  V30 6 1 7 2
M  V30 7 1 8 2
M  V30 8 1 9 1
M  V30 END BOND
M  V30 END CTAB
M  END
$$$$
R-group 900 (8035-1)
     RDKit          3D

  0  0  0  0  0  0  0  0  0  0999 V3000
M  V30 BEGIN CTAB
M  V30 COUNTS 15 15 0 0 1
M  V30 BEGIN ATOM
M  V30 1 C 73.060000 54.324400 42.252900 0
M  V30 2 C 74.058500 55.381300 41.894700 0
M  V30 3 C 75.174600 55.747600 42.575200 0
M  V30 4 F 75.573700 55.258200 43.774600 0
M  V30 5 C 75.872600 56.649400 41.745800 0
M  V30 6 N 75.205900 56.857800 40.627700 0
M  V30 7 N 74.059700 56.158200 40.746700 0
M  V30 8 C 73.057100 56.295500 39.703700 0
M  V30 9 H 72.054400 54.480600 41.892000 0
M  V30 10 H 73.024800 54.265000 43.324600 0
M  V30 11 H 76.826700 57.133200 41.902500 0
M  V30 12 H 73.208800 55.553600 38.921400 0
M  V30 13 H 72.055500 56.186900 40.123600 0
M  V30 14 H 73.135700 57.284100 39.245900 0
M  V30 15 R 73.421600 52.948100 41.749200 0
M  V30 END ATOM
M  V30 BEGIN BOND
M  V30 1 1 2 1
M  V30 2 2 3 2
M  V30 3 1 4 3
M  V30 4 1 5 3
M  V30 5 2 6 5
M  V30 6 1 7 2
M  V30 7 1 7 6
M  V30 8 1 8 7
M  V30 9 1 9 1
M  V30 10 1 10 1
M  V30 11 1 11 5
M  V30 12 1 12 8
M  V30 13 1 13 8
M  V30 14 1 14 8
M  V30 15 1 15 1
M  V30 END BOND
M  V30 END CTAB
M  END
$$$$
R-group 901 (15238-1)
     RDKit          3D

  0  0  0  0  0  0  0  0  0  0999 V3000
M  V30 BEGIN CTAB
M  V30 COUNTS 16 15 0 0 1
M  V30 BEGIN ATOM
M  V30 1 C 76.347300 56.900500 41.203800 0
M  V30 2 N 75.496800 56.857600 42.382200 0
M  V30 3 S 73.798700 56.936800 42.204500 0
M  V30 4 O 73.471600 57.249500 40.803800 0
M  V30 5 O 73.271900 57.714200 43.321700 0
M  V30 6 C 73.333200 55.256600 42.578800 0
M  V30 7 C 73.488900 54.441100 41.342300 0
M  V30 8 H 77.311300 57.265700 41.519300 0
M  V30 9 H 76.459000 55.912700 40.758000 0
M  V30 10 H 75.961400 57.595900 40.455400 0
M  V30 11 H 72.303900 55.238900 42.926300 0
M  V30 12 H 73.983000 54.955400 43.390400 0
M  V30 13 H 74.456400 54.670300 40.898500 0
M  V30 14 H 72.730800 54.760300 40.626500 0
M  V30 15 H 75.840000 57.392900 43.181600 0
M  V30 16 R 73.379100 52.956000 41.613600 0
M  V30 END ATOM
M  V30 BEGIN BOND
M  V30 1 1 2 1
M  V30 2 1 3 2
M  V30 3 2 4 3
M  V30 4 2 5 3
M  V30 5 1 6 3
M  V30 6 1 7 6
M  V30 7 1 8 1
M  V30 8 1 9 1
M  V30 9 1 10 1
M  V30 10 1 11 6
M  V30 11 1 12 6
M  V30 12 1 13 7
M  V30 13 1 14 7
M  V30 14 1 15 2
M  V30 15 1 16 7
M  V30 END BOND
M  V30 END CTAB
M  END
$$$$
R-group 902 (17910-1)
     RDKit          3D

  0  0  0  0  0  0  0  0  0  0999 V3000
M  V30 BEGIN CTAB
M  V30 COUNTS 16 15 0 0 1
M  V30 BEGIN ATOM
M  V30 1 N 74.592400 54.898300 41.727300 0
M  V30 2 C 73.910300 56.178700 41.790600 0
M  V30 3 C 72.903000 56.193000 42.956200 0
M  V30 4 C 74.995100 57.151900 42.269300 0
M  V30 5 C 73.413500 56.666100 40.379700 0
M  V30 6 F 72.522200 55.916400 39.726900 0
M  V30 7 F 74.466400 56.772700 39.574600 0
M  V30 8 F 72.872400 57.869000 40.525200 0
M  V30 9 H 75.216900 54.871600 40.934000 0
M  V30 10 H 72.472900 57.184300 43.041600 0
M  V30 11 H 72.132600 55.423800 42.924700 0
M  V30 12 H 73.413100 56.058000 43.906300 0
M  V30 13 H 74.472400 58.058000 42.564200 0
M  V30 14 H 75.527300 56.788200 43.150600 0
M  V30 15 H 75.740400 57.393200 41.510300 0
M  V30 16 R 73.864900 53.636200 41.852700 0
M  V30 END ATOM
M  V30 BEGIN BOND
M  V30 1 1 2 1
M  V30 2 1 3 2
M  V30 3 1 4 2
M  V30 4 1 5 2
M  V30 5 1 6 5
M  V30 6 1 7 5
M  V30 7 1 8 5
M  V30 8 1 9 1
M  V30 9 1 10 3
M  V30 10 1 11 3
M  V30 11 1 12 3
M  V30 12 1 13 4
M  V30 13 1 14 4
M  V30 14 1 15 4
M  V30 15 1 16 1
M  V30 END BOND
M  V30 END CTAB
M  END
$$$$
R-group 903 (39826-1)
     RDKit          3D

  0  0  0  0  0  0  0  0  0  0999 V3000
M  V30 BEGIN CTAB
M  V30 COUNTS 19 18 0 0 1
M  V30 BEGIN ATOM
M  V30 1 O 73.764300 54.926900 42.040700 0
M  V30 2 C 74.779500 55.507800 41.239200 0
M  V30 3 C 75.005300 56.942400 41.687400 0 CFG=2
M  V30 4 O 75.672100 56.858000 42.924600 0
M  V30 5 C 73.735300 57.831900 41.725300 0
M  V30 6 C 72.883000 57.732000 42.992200 0
M  V30 7 C 72.875800 57.726700 40.463500 0
M  V30 8 H 74.468300 55.529200 40.196200 0
M  V30 9 H 75.709500 54.944600 41.297500 0
M  V30 10 H 75.711100 57.393000 40.988300 0
M  V30 11 H 74.071800 58.856100 41.732100 0
M  V30 12 H 72.473800 56.737200 43.164200 0
M  V30 13 H 72.074300 58.458100 42.926300 0
M  V30 14 H 73.459700 58.009000 43.864100 0
M  V30 15 H 72.438100 56.736700 40.345200 0
M  V30 16 H 72.065700 58.450600 40.524700 0
M  V30 17 H 73.455100 57.945500 39.565500 0
M  V30 18 H 75.112700 56.368400 43.509100 0
M  V30 19 R 73.574300 53.528300 41.895700 0
M  V30 END ATOM
M  V30 BEGIN BOND
M  V30 1 1 2 1
M  V30 2 1 3 2
M  V30 3 1 4 3
M  V30 4 1 5 3
M  V30 5 1 6 5
M  V30 6 1 7 5
M  V30 7 1 8 2
M  V30 8 1 9 2
M  V30 9 1 3 10 CFG=3
M  V30 10 1 11 5
M  V30 11 1 12 6
M  V30 12 1 13 6
M  V30 13 1 14 6
M  V30 14 1 15 7
M  V30 15 1 16 7
M  V30 16 1 17 7
M  V30 17 1 18 4
M  V30 18 1 19 1
M  V30 END BOND
M  V30 END CTAB
M  END
$$$$
R-group 904 (1941-2)
     RDKit          3D

  0  0  0  0  0  0  0  0  0  0999 V3000
M  V30 BEGIN CTAB
M  V30 COUNTS 17 16 0 0 1
M  V30 BEGIN ATOM
M  V30 1 C 76.174600 57.405600 40.523600 0
M  V30 2 C 75.925400 57.025200 41.975700 0
M  V30 3 C 75.510500 55.563800 42.153500 0
M  V30 4 C 73.990400 55.290700 42.030800 0 CFG=2
M  V30 5 C 73.272000 55.958900 43.215800 0
M  V30 6 H 76.472300 58.451000 40.439000 0
M  V30 7 H 76.988000 56.806400 40.125200 0
M  V30 8 H 75.290300 57.247300 39.905500 0
M  V30 9 H 75.166700 57.657900 42.413500 0
M  V30 10 H 76.842400 57.228400 42.524900 0
M  V30 11 H 75.833100 55.257900 43.148100 0
M  V30 12 H 76.065400 54.959300 41.443300 0
M  V30 13 H 73.631600 55.795500 41.133700 0
M  V30 14 H 73.785400 55.659200 44.123600 0
M  V30 15 H 73.273500 57.046100 43.164900 0
M  V30 16 H 72.230100 55.658000 43.324700 0
M  V30 17 R 73.624200 53.768200 41.904200 0
M  V30 END ATOM
M  V30 BEGIN BOND
M  V30 1 1 2 1
M  V30 2 1 3 2
M  V30 3 1 4 3
M  V30 4 1 5 4
M  V30 5 1 6 1
M  V30 6 1 7 1
M  V30 7 1 8 1
M  V30 8 1 9 2
M  V30 9 1 10 2
M  V30 10 1 11 3
M  V30 11 1 12 3
M  V30 12 1 4 13 CFG=3
M  V30 13 1 14 5
M  V30 14 1 15 5
M  V30 15 1 16 5
M  V30 16 1 17 4
M  V30 END BOND
M  V30 END CTAB
M  END
$$$$
R-group 905 (29197-1)
     RDKit          3D

  0  0  0  0  0  0  0  0  0  0999 V3000
M  V30 BEGIN CTAB
M  V30 COUNTS 16 16 0 0 1
M  V30 BEGIN ATOM
M  V30 1 C 73.545300 55.080300 42.455200 0
M  V30 2 C 74.803900 55.894300 42.782800 0
M  V30 3 C 75.766600 55.224600 43.746500 0
M  V30 4 O 75.272300 54.856900 44.996800 0
M  V30 5 C 75.378700 56.830600 41.737400 0
M  V30 6 C 74.644800 57.389300 42.929800 0
M  V30 7 H 72.981900 55.694100 41.758000 0
M  V30 8 H 72.904300 55.107200 43.313000 0
M  V30 9 H 76.072000 54.290100 43.326000 0
M  V30 10 H 76.658500 55.827100 43.898000 0
M  V30 11 H 76.460000 56.950800 41.706700 0
M  V30 12 H 74.877500 56.905800 40.775300 0
M  V30 13 H 73.661200 57.820300 42.754400 0
M  V30 14 H 75.234100 57.881600 43.706000 0
M  V30 15 H 74.322900 54.781200 44.929700 0
M  V30 16 R 73.633500 53.660200 41.795400 0
M  V30 END ATOM
M  V30 BEGIN BOND
M  V30 1 1 2 1
M  V30 2 1 3 2
M  V30 3 1 4 3
M  V30 4 1 5 2
M  V30 5 1 6 2
M  V30 6 1 6 5
M  V30 7 1 7 1
M  V30 8 1 8 1
M  V30 9 1 9 3
M  V30 10 1 10 3
M  V30 11 1 11 5
M  V30 12 1 12 5
M  V30 13 1 13 6
M  V30 14 1 14 6
M  V30 15 1 15 4
M  V30 16 1 16 1
M  V30 END BOND
M  V30 END CTAB
M  END
$$$$
R-group 906 (22565-2)
     RDKit          3D

  0  0  0  0  0  0  0  0  0  0999 V3000
M  V30 BEGIN CTAB
M  V30 COUNTS 11 10 0 0 1
M  V30 BEGIN ATOM
M  V30 1 C 74.286900 55.483000 42.909800 0 CFG=2
M  V30 2 C 73.084000 56.429500 42.942900 0
M  V30 3 C 75.530600 56.266700 42.421900 0
M  V30 4 F 75.328800 56.858100 41.247100 0
M  V30 5 H 74.472400 55.277600 43.962400 0
M  V30 6 H 72.872300 56.835800 41.953900 0
M  V30 7 H 72.200900 55.917000 43.324700 0
M  V30 8 H 73.271200 57.277700 43.602000 0
M  V30 9 H 75.784700 57.063300 43.122900 0
M  V30 10 H 76.416100 55.658100 42.296200 0
M  V30 11 R 73.979600 54.102100 42.210900 0
M  V30 END ATOM
M  V30 BEGIN BOND
M  V30 1 1 2 1
M  V30 2 1 3 1
M  V30 3 1 4 3
M  V30 4 1 1 5 CFG=1
M  V30 5 1 6 2
M  V30 6 1 7 2
M  V30 7 1 8 2
M  V30 8 1 9 3
M  V30 9 1 10 3
M  V30 10 1 11 1
M  V30 END BOND
M  V30 END CTAB
M  END
$$$$
R-group 907 (27585-3)
     RDKit          3D

  0  0  0  0  0  0  0  0  0  0999 V3000
M  V30 BEGIN CTAB
M  V30 COUNTS 22 22 0 0 1
M  V30 BEGIN ATOM
M  V30 1 C 77.096100 57.541500 41.387500 0
M  V30 2 O 76.062600 57.257900 40.524700 0
M  V30 3 C 74.848700 56.857300 41.079000 0 CFG=2
M  V30 4 C 74.352700 57.657900 42.300900 0
M  V30 5 C 73.033100 57.108300 42.727500 0
M  V30 6 C 73.060000 55.597000 42.924800 0
M  V30 7 C 73.539900 54.851400 41.681100 0 CFG=1
M  V30 8 C 74.949600 55.366900 41.372500 0
M  V30 9 H 77.940400 57.658100 40.713400 0
M  V30 10 H 76.872200 58.458000 41.911800 0
M  V30 11 H 77.272200 56.740700 42.098200 0
M  V30 12 H 74.134300 56.992800 40.265300 0
M  V30 13 H 75.053000 57.658100 43.137200 0
M  V30 14 H 74.072200 58.675600 42.028500 0
M  V30 15 H 72.629900 57.636100 43.593100 0
M  V30 16 H 72.472200 57.363100 41.847600 0
M  V30 17 H 72.074000 55.258100 43.248900 0
M  V30 18 H 73.766100 55.397600 43.724700 0
M  V30 19 H 72.878700 55.162800 40.871200 0
M  V30 20 H 75.617700 55.188300 42.215100 0
M  V30 21 H 75.408500 54.874200 40.524000 0
M  V30 22 R 73.417000 53.316400 41.793900 0
M  V30 END ATOM
M  V30 BEGIN BOND
M  V30 1 1 2 1
M  V30 2 1 3 2
M  V30 3 1 4 3
M  V30 4 1 5 4
M  V30 5 1 6 5
M  V30 6 1 7 6
M  V30 7 1 8 3
M  V30 8 1 8 7
M  V30 9 1 9 1
M  V30 10 1 10 1
M  V30 11 1 11 1
M  V30 12 1 3 12 CFG=3
M  V30 13 1 13 4
M  V30 14 1 14 4
M  V30 15 1 15 5
M  V30 16 1 16 5
M  V30 17 1 17 6
M  V30 18 1 18 6
M  V30 19 1 7 19 CFG=3
M  V30 20 1 20 8
M  V30 21 1 21 8
M  V30 22 1 22 7
M  V30 END BOND
M  V30 END CTAB
M  END
$$$$
R-group 908 (1563-2)
     RDKit          3D

  0  0  0  0  0  0  0  0  0  0999 V3000
M  V30 BEGIN CTAB
M  V30 COUNTS 17 17 0 0 1
M  V30 BEGIN ATOM
M  V30 1 O 73.735900 54.809200 42.522000 0
M  V30 2 C 74.992600 55.461400 42.372900 0
M  V30 3 C 74.850400 56.660200 41.438100 0 CFG=2
M  V30 4 C 73.632800 57.547300 41.687200 0
M  V30 5 C 73.073500 57.796000 40.295600 0
M  V30 6 C 74.094400 57.184800 39.330400 0
M  V30 7 O 74.688600 56.177000 40.122500 0
M  V30 8 H 75.320000 55.792600 43.358500 0
M  V30 9 H 75.766500 54.808000 41.984800 0
M  V30 10 H 75.760900 57.261500 41.458800 0
M  V30 11 H 72.877800 57.076100 42.315900 0
M  V30 12 H 73.932100 58.460300 42.189300 0
M  V30 13 H 72.127700 57.264100 40.185300 0
M  V30 14 H 72.874200 58.849900 40.125100 0
M  V30 15 H 73.596900 56.723000 38.481900 0
M  V30 16 H 74.863900 57.868300 38.940000 0
M  V30 17 R 73.620300 53.431600 42.169000 0
M  V30 END ATOM
M  V30 BEGIN BOND
M  V30 1 1 2 1
M  V30 2 1 3 2
M  V30 3 1 4 3
M  V30 4 1 5 4
M  V30 5 1 6 5
M  V30 6 1 7 3
M  V30 7 1 7 6
M  V30 8 1 8 2
M  V30 9 1 9 2
M  V30 10 1 3 10 CFG=3
M  V30 11 1 11 4
M  V30 12 1 12 4
M  V30 13 1 13 5
M  V30 14 1 14 5
M  V30 15 1 15 6
M  V30 16 1 16 6
M  V30 17 1 17 1
M  V30 END BOND
M  V30 END CTAB
M  END
$$$$
R-group 909 (31005-6)
     RDKit          3D

  0  0  0  0  0  0  0  0  0  0999 V3000
M  V30 BEGIN CTAB
M  V30 COUNTS 21 21 0 0 1
M  V30 BEGIN ATOM
M  V30 1 C 74.507900 55.494700 42.703000 0 CFG=1
M  V30 2 C 75.728300 56.031000 41.943700 0
M  V30 3 C 75.187900 56.857200 40.781300 0
M  V30 4 C 73.890300 57.462000 41.308000 0 CFG=1
M  V30 5 C 72.834200 57.657900 40.223900 0
M  V30 6 C 73.457600 56.604200 42.511800 0 CFG=2
M  V30 7 C 73.237400 57.560300 43.643400 0
M  V30 8 H 74.759600 55.465300 43.762900 0
M  V30 9 H 76.299200 56.684400 42.605800 0
M  V30 10 H 76.401400 55.258100 41.604700 0
M  V30 11 H 75.905500 57.612100 40.463000 0
M  V30 12 H 74.985800 56.240300 39.912100 0
M  V30 13 H 74.112800 58.449100 41.723300 0
M  V30 14 H 72.350300 56.728900 39.932800 0
M  V30 15 H 72.071300 58.343800 40.582300 0
M  V30 16 H 73.273500 58.096200 39.330100 0
M  V30 17 H 72.506500 56.143300 42.524700 0
M  V30 18 H 74.189300 58.075000 43.724800 0
M  V30 19 H 72.473300 58.292400 43.373600 0
M  V30 20 H 72.872700 57.038100 44.524600 0
M  V30 21 R 73.989200 54.057200 42.303400 0
M  V30 END ATOM
M  V30 BEGIN BOND
M  V30 1 1 2 1
M  V30 2 1 3 2
M  V30 3 1 4 3
M  V30 4 1 5 4
M  V30 5 1 6 1
M  V30 6 1 6 4
M  V30 7 1 7 6
M  V30 8 1 1 8 CFG=1
M  V30 9 1 9 2
M  V30 10 1 10 2
M  V30 11 1 11 3
M  V30 12 1 12 3
M  V30 13 1 4 13 CFG=1
M  V30 14 1 14 5
M  V30 15 1 15 5
M  V30 16 1 16 5
M  V30 17 1 6 17 CFG=3
M  V30 18 1 18 7
M  V30 19 1 19 7
M  V30 20 1 20 7
M  V30 21 1 21 1
M  V30 END BOND
M  V30 END CTAB
M  END
$$$$
R-group 910 (884-1)
     RDKit          3D

  0  0  0  0  0  0  0  0  0  0999 V3000
M  V30 BEGIN CTAB
M  V30 COUNTS 12 11 0 0 1
M  V30 BEGIN ATOM
M  V30 1 C 73.453800 57.528800 43.046300 0
M  V30 2 C 73.456000 55.994200 43.117700 0
M  V30 3 C 73.912600 55.310600 41.823900 0 CFG=1
M  V30 4 O 75.271200 55.626800 41.588600 0
M  V30 5 H 72.971400 57.951600 43.927800 0
M  V30 6 H 74.469000 57.921900 43.001700 0
M  V30 7 H 72.909000 57.888400 42.172800 0
M  V30 8 H 72.436000 55.671900 43.323900 0
M  V30 9 H 74.072000 55.656900 43.951500 0
M  V30 10 H 73.348400 55.786300 41.020400 0
M  V30 11 H 75.368200 56.565300 41.599300 0
M  V30 12 R 73.625000 53.774200 41.766700 0
M  V30 END ATOM
M  V30 BEGIN BOND
M  V30 1 1 2 1
M  V30 2 1 3 2
M  V30 3 1 4 3
M  V30 4 1 5 1
M  V30 5 1 6 1
M  V30 6 1 7 1
M  V30 7 1 8 2
M  V30 8 1 9 2
M  V30 9 1 3 10 CFG=3
M  V30 10 1 11 4
M  V30 11 1 12 3
M  V30 END BOND
M  V30 END CTAB
M  END
$$$$
R-group 911 (39425-2)
     RDKit          3D

  0  0  0  0  0  0  0  0  0  0999 V3000
M  V30 BEGIN CTAB
M  V30 COUNTS 8 7 0 0 1
M  V30 BEGIN ATOM
M  V30 1 S 74.930400 55.830600 42.070600 0
M  V30 2 O 75.668900 56.024600 43.324700 0
M  V30 3 O 75.672000 55.929700 40.811600 0
M  V30 4 C 73.644900 57.121200 41.979800 0
M  V30 5 F 73.269700 57.257700 40.708600 0
M  V30 6 H 72.816000 56.862200 42.629000 0
M  V30 7 H 74.073400 58.067500 42.302500 0
M  V30 8 R 73.965100 54.201200 42.116700 0
M  V30 END ATOM
M  V30 BEGIN BOND
M  V30 1 2 2 1
M  V30 2 2 3 1
M  V30 3 1 4 1
M  V30 4 1 5 4
M  V30 5 1 6 4
M  V30 6 1 7 4
M  V30 7 1 8 1
M  V30 END BOND
M  V30 END CTAB
M  END
$$$$
R-group 912 (39157-1)
     RDKit          3D

  0  0  0  0  0  0  0  0  0  0999 V3000
M  V30 BEGIN CTAB
M  V30 COUNTS 10 10 0 0 1
M  V30 BEGIN ATOM
M  V30 1 O 72.914400 54.121800 42.124300 0
M  V30 2 C 73.801100 55.137800 42.048700 0
M  V30 3 C 73.672500 56.231400 42.922900 0
M  V30 4 C 74.472400 57.257800 42.580000 0
M  V30 5 S 75.598400 56.857700 41.326200 0
M  V30 6 C 74.856600 55.298600 41.176100 0
M  V30 7 H 72.919000 56.259900 43.697000 0
M  V30 8 H 74.471400 58.217500 43.067200 0
M  V30 9 H 75.239400 54.632800 40.426400 0
M  V30 10 R 73.304600 52.856100 41.685700 0
M  V30 END ATOM
M  V30 BEGIN BOND
M  V30 1 1 2 1
M  V30 2 1 3 2
M  V30 3 2 4 3
M  V30 4 1 5 4
M  V30 5 2 6 2
M  V30 6 1 6 5
M  V30 7 1 7 3
M  V30 8 1 8 4
M  V30 9 1 9 6
M  V30 10 1 10 1
M  V30 END BOND
M  V30 END CTAB
M  END
$$$$
R-group 913 (1396-1)
     RDKit          3D

  0  0  0  0  0  0  0  0  0  0999 V3000
M  V30 BEGIN CTAB
M  V30 COUNTS 10 10 0 0 1
M  V30 BEGIN ATOM
M  V30 1 C 73.921600 54.680400 41.675800 0
M  V30 2 N 74.492400 55.325100 42.689100 0
M  V30 3 N 74.405200 56.672900 42.524500 0
M  V30 4 C 73.700300 56.990300 41.447400 0
M  V30 5 C 73.272400 58.372700 41.247400 0
M  V30 6 F 72.438700 58.857400 42.123000 0
M  V30 7 S 73.550300 55.709400 40.285700 0
M  V30 8 H 74.077100 58.857100 41.721600 0
M  V30 9 H 73.075300 58.668800 40.217500 0
M  V30 10 R 73.610500 53.227800 41.761800 0
M  V30 END ATOM
M  V30 BEGIN BOND
M  V30 1 2 2 1
M  V30 2 1 3 2
M  V30 3 2 4 3
M  V30 4 1 5 4
M  V30 5 1 6 5
M  V30 6 1 7 1
M  V30 7 1 7 4
M  V30 8 1 8 5
M  V30 9 1 9 5
M  V30 10 1 10 1
M  V30 END BOND
M  V30 END CTAB
M  END
$$$$
R-group 914 (35219-4)
     RDKit          3D

  0  0  0  0  0  0  0  0  0  0999 V3000
M  V30 BEGIN CTAB
M  V30 COUNTS 19 19 0 0 1
M  V30 BEGIN ATOM
M  V30 1 O 73.272200 54.651400 41.778700 0
M  V30 2 C 73.880800 55.352900 40.704500 0 CFG=2
M  V30 3 C 75.373300 55.328400 40.997800 0
M  V30 4 S 75.689500 56.838300 41.887100 0
M  V30 5 O 76.055600 56.488700 43.257500 0
M  V30 6 O 76.548200 57.631300 40.999100 0
M  V30 7 C 74.022500 57.503900 41.844000 0
M  V30 8 C 73.405600 56.805000 40.647300 0 CFG=1
M  V30 9 C 73.807000 57.448900 39.324900 0
M  V30 10 H 73.605900 54.952600 39.732500 0
M  V30 11 H 75.686100 54.526300 41.638300 0
M  V30 12 H 76.003600 55.336400 40.124900 0
M  V30 13 H 74.072300 58.584500 41.754900 0
M  V30 14 H 73.518100 57.241300 42.778400 0
M  V30 15 H 72.329400 56.862000 40.658300 0
M  V30 16 H 74.865700 57.316600 39.087700 0
M  V30 17 H 73.238800 56.987100 38.525200 0
M  V30 18 H 73.598800 58.511400 39.316700 0
M  V30 19 R 73.289600 53.223500 41.762200 0
M  V30 END ATOM
M  V30 BEGIN BOND
M  V30 1 1 2 1
M  V30 2 1 3 2
M  V30 3 1 4 3
M  V30 4 2 5 4
M  V30 5 2 6 4
M  V30 6 1 7 4
M  V30 7 1 8 2
M  V30 8 1 8 7
M  V30 9 1 9 8
M  V30 10 1 2 10 CFG=3
M  V30 11 1 11 3
M  V30 12 1 12 3
M  V30 13 1 13 7
M  V30 14 1 14 7
M  V30 15 1 8 15 CFG=1
M  V30 16 1 16 9
M  V30 17 1 17 9
M  V30 18 1 18 9
M  V30 19 1 19 1
M  V30 END BOND
M  V30 END CTAB
M  END
$$$$
R-group 915 (2445-2)
     RDKit          3D

  0  0  0  0  0  0  0  0  0  0999 V3000
M  V30 BEGIN CTAB
M  V30 COUNTS 19 19 0 0 1
M  V30 BEGIN ATOM
M  V30 1 C 73.970600 54.949200 41.465000 0 CFG=1
M  V30 2 C 73.382900 55.646400 40.196900 0
M  V30 3 C 73.728500 57.129000 40.154600 0
M  V30 4 C 73.153700 57.814200 41.378600 0
M  V30 5 C 73.659400 57.180600 42.676900 0 CFG=1
M  V30 6 O 72.872300 57.656800 43.724200 0
M  V30 7 C 73.511400 55.665300 42.737900 0
M  V30 8 H 75.053500 55.061100 41.396900 0
M  V30 9 H 73.773000 55.222100 39.278800 0
M  V30 10 H 72.301100 55.523400 40.145700 0
M  V30 11 H 73.321400 57.585500 39.246500 0
M  V30 12 H 74.811900 57.258000 40.110800 0
M  V30 13 H 72.073700 57.811800 41.312900 0
M  V30 14 H 73.412900 58.859400 41.378300 0
M  V30 15 H 74.699200 57.456500 42.844300 0
M  V30 16 H 72.472100 55.392700 42.934300 0
M  V30 17 H 74.071900 55.310400 43.595300 0
M  V30 18 H 73.182100 57.285800 44.534500 0
M  V30 19 R 73.640500 53.432700 41.605100 0
M  V30 END ATOM
M  V30 BEGIN BOND
M  V30 1 1 2 1
M  V30 2 1 3 2
M  V30 3 1 4 3
M  V30 4 1 5 4
M  V30 5 1 6 5
M  V30 6 1 7 1
M  V30 7 1 7 5
M  V30 8 1 1 8 CFG=3
M  V30 9 1 9 2
M  V30 10 1 10 2
M  V30 11 1 11 3
M  V30 12 1 12 3
M  V30 13 1 13 4
M  V30 14 1 14 4
M  V30 15 1 5 15 CFG=1
M  V30 16 1 16 7
M  V30 17 1 17 7
M  V30 18 1 18 6
M  V30 19 1 19 1
M  V30 END BOND
M  V30 END CTAB
M  END
$$$$
R-group 916 (10964-1)
     RDKit          3D

  0  0  0  0  0  0  0  0  0  0999 V3000
M  V30 BEGIN CTAB
M  V30 COUNTS 14 14 0 0 1
M  V30 BEGIN ATOM
M  V30 1 C 72.692900 54.113300 42.038400 0
M  V30 2 C 73.732000 55.187600 41.812900 0
M  V30 3 N 73.670300 55.720300 40.578000 0
M  V30 4 C 74.669900 56.519600 40.194900 0
M  V30 5 C 75.713100 56.876800 41.063900 0
M  V30 6 F 76.724200 57.658000 40.636200 0
M  V30 7 C 75.685600 56.456500 42.395700 0
M  V30 8 C 74.724400 55.520000 42.768000 0
M  V30 9 F 74.874100 54.892400 43.947300 0
M  V30 10 H 71.811000 54.384600 41.451200 0
M  V30 11 H 72.323100 54.094600 43.048800 0
M  V30 12 H 74.658400 56.886300 39.177600 0
M  V30 13 H 76.472500 56.743300 43.075700 0
M  V30 14 R 73.207600 52.724600 41.630100 0
M  V30 END ATOM
M  V30 BEGIN BOND
M  V30 1 1 2 1
M  V30 2 2 3 2
M  V30 3 1 4 3
M  V30 4 2 5 4
M  V30 5 1 6 5
M  V30 6 1 7 5
M  V30 7 1 8 2
M  V30 8 2 8 7
M  V30 9 1 9 8
M  V30 10 1 10 1
M  V30 11 1 11 1
M  V30 12 1 12 4
M  V30 13 1 13 7
M  V30 14 1 14 1
M  V30 END BOND
M  V30 END CTAB
M  END
$$$$
R-group 917 (12646-1)
     RDKit          3D

  0  0  0  0  0  0  0  0  0  0999 V3000
M  V30 BEGIN CTAB
M  V30 COUNTS 13 13 0 0 1
M  V30 BEGIN ATOM
M  V30 1 C 72.796300 54.251400 41.892000 0
M  V30 2 N 73.748800 55.297600 41.565600 0
M  V30 3 N 73.625900 55.993300 40.412100 0
M  V30 4 C 74.633500 56.848200 40.407600 0
M  V30 5 C 75.459600 56.739300 41.559400 0
M  V30 6 C 74.837500 55.757200 42.268800 0
M  V30 7 C 75.271900 55.258000 43.503700 0
M  V30 8 N 75.672000 54.857700 44.524600 0
M  V30 9 H 72.511100 54.335600 42.924700 0
M  V30 10 H 71.874400 54.447500 41.340700 0
M  V30 11 H 74.732400 57.503600 39.554100 0
M  V30 12 H 76.348200 57.293700 41.821800 0
M  V30 13 R 73.283300 52.838100 41.548800 0
M  V30 END ATOM
M  V30 BEGIN BOND
M  V30 1 1 2 1
M  V30 2 1 3 2
M  V30 3 2 4 3
M  V30 4 1 5 4
M  V30 5 1 6 2
M  V30 6 2 6 5
M  V30 7 1 7 6
M  V30 8 3 8 7
M  V30 9 1 9 1
M  V30 10 1 10 1
M  V30 11 1 11 4
M  V30 12 1 12 5
M  V30 13 1 13 1
M  V30 END BOND
M  V30 END CTAB
M  END
$$$$
R-group 918 (117-1)
     RDKit          3D

  0  0  0  0  0  0  0  0  0  0999 V3000
M  V30 BEGIN CTAB
M  V30 COUNTS 9 8 0 0 1
M  V30 BEGIN ATOM
M  V30 1 C 73.742200 55.170900 42.215500 0
M  V30 2 C 75.246300 55.480100 42.289900 0
M  V30 3 O 75.462000 56.858000 42.316800 0
M  V30 4 H 73.273200 55.804700 41.461600 0
M  V30 5 H 73.289600 55.469300 43.161100 0
M  V30 6 H 75.672200 55.062500 43.199300 0
M  V30 7 H 75.789000 55.073800 41.440000 0
M  V30 8 H 75.085800 57.211800 43.108800 0
M  V30 9 R 73.409600 53.683600 41.932200 0
M  V30 END ATOM
M  V30 BEGIN BOND
M  V30 1 1 2 1
M  V30 2 1 3 2
M  V30 3 1 4 1
M  V30 4 1 5 1
M  V30 5 1 6 2
M  V30 6 1 7 2
M  V30 7 1 8 3
M  V30 8 1 9 1
M  V30 END BOND
M  V30 END CTAB
M  END
$$$$
R-group 919 (10310-2)
     RDKit          3D

  0  0  0  0  0  0  0  0  0  0999 V3000
M  V30 BEGIN CTAB
M  V30 COUNTS 18 17 0 0 1
M  V30 BEGIN ATOM
M  V30 1 C 73.771700 57.189000 39.541500 0
M  V30 2 C 73.784300 57.435700 41.057400 0
M  V30 3 C 74.992800 56.832100 41.791800 0 CFG=2
M  V30 4 C 76.336500 57.197900 41.127700 0
M  V30 5 O 74.871500 55.421100 41.799500 0
M  V30 6 C 73.848200 54.894500 42.639300 0
M  V30 7 H 72.872400 57.594100 39.090100 0
M  V30 8 H 74.612300 57.658000 39.036700 0
M  V30 9 H 73.801400 56.122900 39.316100 0
M  V30 10 H 72.860800 57.059200 41.455700 0
M  V30 11 H 73.701900 58.477100 41.322000 0
M  V30 12 H 75.005600 57.191000 42.822600 0
M  V30 13 H 76.466200 58.272600 41.004100 0
M  V30 14 H 77.175100 56.857800 41.725900 0
M  V30 15 H 76.438400 56.739400 40.141600 0
M  V30 16 H 72.884200 55.387700 42.558000 0
M  V30 17 H 74.150200 55.026200 43.678500 0
M  V30 18 R 73.609100 53.421900 42.278600 0
M  V30 END ATOM
M  V30 BEGIN BOND
M  V30 1 1 2 1
M  V30 2 1 3 2
M  V30 3 1 4 3
M  V30 4 1 5 3
M  V30 5 1 6 5
M  V30 6 1 7 1
M  V30 7 1 8 1
M  V30 8 1 9 1
M  V30 9 1 10 2
M  V30 10 1 11 2
M  V30 11 1 3 12 CFG=1
M  V30 12 1 13 4
M  V30 13 1 14 4
M  V30 14 1 15 4
M  V30 15 1 16 6
M  V30 16 1 17 6
M  V30 17 1 18 6
M  V30 END BOND
M  V30 END CTAB
M  END
$$$$
R-group 920 (10275-8)
     RDKit          3D

  0  0  0  0  0  0  0  0  0  0999 V3000
M  V30 BEGIN CTAB
M  V30 COUNTS 18 19 0 0 1
M  V30 BEGIN ATOM
M  V30 1 C 74.300000 55.245000 41.804800 0 CFG=1
M  V30 2 C 73.672500 56.291000 40.843800 0 CFG=2
M  V30 3 O 74.397200 56.396900 39.643400 0
M  V30 4 C 73.818700 57.621100 41.581600 0 CFG=1
M  V30 5 O 72.722900 58.458000 41.350100 0
M  V30 6 C 73.911000 57.332600 43.039300 0 CFG=1
M  V30 7 C 72.943800 56.445400 43.769700 0
M  V30 8 C 74.227200 55.882600 43.186800 0 CFG=1
M  V30 9 H 75.364200 55.191900 41.564400 0
M  V30 10 H 72.639000 56.081700 40.569300 0
M  V30 11 H 74.774300 58.058000 41.324700 0
M  V30 12 H 74.465100 58.057000 43.631400 0
M  V30 13 H 72.872200 56.458000 44.852400 0
M  V30 14 H 72.072300 56.010400 43.324700 0
M  V30 15 H 75.023500 55.612500 43.877000 0
M  V30 16 H 74.003300 57.062400 39.096400 0
M  V30 17 H 72.751200 58.751700 40.453500 0
M  V30 18 R 73.721100 53.800900 41.759800 0
M  V30 END ATOM
M  V30 BEGIN BOND
M  V30 1 1 2 1
M  V30 2 1 3 2
M  V30 3 1 4 2
M  V30 4 1 5 4
M  V30 5 1 6 4
M  V30 6 1 7 6
M  V30 7 1 8 1
M  V30 8 1 8 6
M  V30 9 1 8 7
M  V30 10 1 1 9 CFG=3
M  V30 11 1 2 10 CFG=3
M  V30 12 1 4 11 CFG=3
M  V30 13 1 6 12 CFG=1
M  V30 14 1 13 7
M  V30 15 1 14 7
M  V30 16 1 8 15 CFG=1
M  V30 17 1 16 3
M  V30 18 1 17 5
M  V30 19 1 18 1
M  V30 END BOND
M  V30 END CTAB
M  END
$$$$
R-group 921 (16778-1)
     RDKit          3D

  0  0  0  0  0  0  0  0  0  0999 V3000
M  V30 BEGIN CTAB
M  V30 COUNTS 19 18 0 0 1
M  V30 BEGIN ATOM
M  V30 1 C 72.885300 57.361600 40.522100 0
M  V30 2 C 73.563500 57.699200 41.849900 0
M  V30 3 C 74.569500 56.662100 42.365600 0 CFG=2
M  V30 4 C 75.619400 56.222500 41.320700 0
M  V30 5 O 76.472200 57.258100 40.934600 0
M  V30 6 C 73.848000 55.434200 42.922900 0
M  V30 7 O 73.664900 54.579800 41.817500 0
M  V30 8 H 72.072400 58.058800 40.376900 0
M  V30 9 H 72.472700 56.355500 40.500500 0
M  V30 10 H 73.569900 57.462900 39.678200 0
M  V30 11 H 74.070600 58.644300 41.737000 0
M  V30 12 H 72.804800 57.873400 42.613000 0
M  V30 13 H 75.091300 57.122000 43.206100 0
M  V30 14 H 76.208700 55.406100 41.724100 0
M  V30 15 H 75.155700 55.851200 40.408800 0
M  V30 16 H 74.462100 54.998700 43.709900 0
M  V30 17 H 72.868300 55.683800 43.325400 0
M  V30 18 H 76.895400 57.609200 41.703000 0
M  V30 19 R 73.408600 53.217400 42.041100 0
M  V30 END ATOM
M  V30 BEGIN BOND
M  V30 1 1 2 1
M  V30 2 1 3 2
M  V30 3 1 4 3
M  V30 4 1 5 4
M  V30 5 1 6 3
M  V30 6 1 7 6
M  V30 7 1 8 1
M  V30 8 1 9 1
M  V30 9 1 10 1
M  V30 10 1 11 2
M  V30 11 1 12 2
M  V30 12 1 3 13 CFG=1
M  V30 13 1 14 4
M  V30 14 1 15 4
M  V30 15 1 16 6
M  V30 16 1 17 6
M  V30 17 1 18 5
M  V30 18 1 19 7
M  V30 END BOND
M  V30 END CTAB
M  END
$$$$
R-group 922 (35689-5)
     RDKit          3D

  0  0  0  0  0  0  0  0  0  0999 V3000
M  V30 BEGIN CTAB
M  V30 COUNTS 16 16 0 0 1
M  V30 BEGIN ATOM
M  V30 1 C 73.647500 54.621400 41.465400 0 CFG=2
M  V30 2 C 73.295500 55.491200 42.660500 0
M  V30 3 C 73.400100 56.890400 42.067100 0 CFG=1
M  V30 4 O 74.770500 57.169800 42.145600 0
M  V30 5 C 72.983600 56.763000 40.582500 0 CFG=1
M  V30 6 F 73.884900 57.253000 39.731700 0
M  V30 7 C 72.844200 55.270200 40.327300 0
M  V30 8 H 74.704100 54.767500 41.238000 0
M  V30 9 H 72.279800 55.262400 42.983800 0
M  V30 10 H 73.964000 55.337000 43.511400 0
M  V30 11 H 72.819100 57.634100 42.615300 0
M  V30 12 H 72.070400 57.301900 40.373600 0
M  V30 13 H 73.213100 55.002800 39.333900 0
M  V30 14 H 71.804300 54.950200 40.369900 0
M  V30 15 H 75.001900 57.289800 43.058600 0
M  V30 16 R 73.430600 53.125500 41.691800 0
M  V30 END ATOM
M  V30 BEGIN BOND
M  V30 1 1 2 1
M  V30 2 1 3 2
M  V30 3 1 4 3
M  V30 4 1 5 3
M  V30 5 1 6 5
M  V30 6 1 7 1
M  V30 7 1 7 5
M  V30 8 1 1 8 CFG=3
M  V30 9 1 9 2
M  V30 10 1 10 2
M  V30 11 1 3 11 CFG=1
M  V30 12 1 5 12 CFG=1
M  V30 13 1 13 7
M  V30 14 1 14 7
M  V30 15 1 15 4
M  V30 16 1 16 1
M  V30 END BOND
M  V30 END CTAB
M  END
$$$$
R-group 923 (28964-1)
     RDKit          3D

  0  0  0  0  0  0  0  0  0  0999 V3000
M  V30 BEGIN CTAB
M  V30 COUNTS 21 21 0 0 1
M  V30 BEGIN ATOM
M  V30 1 C 74.275400 55.316100 41.491200 0 CFG=1
M  V30 2 C 75.556300 55.678100 40.736200 0
M  V30 3 C 75.515700 57.192600 40.604100 0
M  V30 4 C 74.072400 57.387000 40.156700 0
M  V30 5 C 73.272100 56.424000 41.028000 0
M  V30 6 C 72.087000 55.977500 40.124600 0
M  V30 7 C 72.872600 57.252300 42.284800 0
M  V30 8 H 74.538800 55.562000 42.521200 0
M  V30 9 H 76.449900 55.342300 41.240300 0
M  V30 10 H 75.514700 55.297100 39.726400 0
M  V30 11 H 75.711200 57.657300 41.570200 0
M  V30 12 H 76.241200 57.589800 39.900000 0
M  V30 13 H 74.023700 57.137500 39.093900 0
M  V30 14 H 73.672000 58.401400 40.240600 0
M  V30 15 H 71.384500 56.804300 40.088900 0
M  V30 16 H 72.379900 55.730600 39.104000 0
M  V30 17 H 71.542300 55.116100 40.523800 0
M  V30 18 H 72.168900 58.057800 42.056900 0
M  V30 19 H 72.472100 56.615600 43.073400 0
M  V30 20 H 73.736500 57.745900 42.729000 0
M  V30 21 R 73.824700 53.810900 41.614800 0
M  V30 END ATOM
M  V30 BEGIN BOND
M  V30 1 1 2 1
M  V30 2 1 3 2
M  V30 3 1 4 3
M  V30 4 1 5 1
M  V30 5 1 5 4
M  V30 6 1 6 5
M  V30 7 1 7 5
M  V30 8 1 1 8 CFG=1
M  V30 9 1 9 2
M  V30 10 1 10 2
M  V30 11 1 11 3
M  V30 12 1 12 3
M  V30 13 1 13 4
M  V30 14 1 14 4
M  V30 15 1 15 6
M  V30 16 1 16 6
M  V30 17 1 17 6
M  V30 18 1 18 7
M  V30 19 1 19 7
M  V30 20 1 20 7
M  V30 21 1 21 1
M  V30 END BOND
M  V30 END CTAB
M  END
$$$$
R-group 924 (768-1)
     RDKit          3D

  0  0  0  0  0  0  0  0  0  0999 V3000
M  V30 BEGIN CTAB
M  V30 COUNTS 12 11 0 0 1
M  V30 BEGIN ATOM
M  V30 1 C 75.843400 56.868900 43.202400 0
M  V30 2 O 75.137300 55.645700 43.090000 0
M  V30 3 C 74.524300 55.375500 41.832900 0 CFG=2
M  V30 4 C 73.519300 56.497100 41.499300 0
M  V30 5 H 76.471900 56.850200 44.092700 0
M  V30 6 H 76.474900 57.059200 42.334700 0
M  V30 7 H 75.141800 57.690200 43.325800 0
M  V30 8 H 75.316700 55.380600 41.084800 0
M  V30 9 H 72.891400 56.262600 40.640500 0
M  V30 10 H 72.872300 56.694400 42.353800 0
M  V30 11 H 74.030300 57.430300 41.261600 0
M  V30 12 R 73.880400 53.951500 41.887300 0
M  V30 END ATOM
M  V30 BEGIN BOND
M  V30 1 1 2 1
M  V30 2 1 3 2
M  V30 3 1 4 3
M  V30 4 1 5 1
M  V30 5 1 6 1
M  V30 6 1 7 1
M  V30 7 1 3 8 CFG=3
M  V30 8 1 9 4
M  V30 9 1 10 4
M  V30 10 1 11 4
M  V30 11 1 12 3
M  V30 END BOND
M  V30 END CTAB
M  END
$$$$
R-group 925 (39790-1)
     RDKit          3D

  0  0  0  0  0  0  0  0  0  0999 V3000
M  V30 BEGIN CTAB
M  V30 COUNTS 15 14 0 0 1
M  V30 BEGIN ATOM
M  V30 1 C 73.000200 54.451100 42.027800 0
M  V30 2 O 74.193200 55.186300 42.136800 0
M  V30 3 C 74.047300 56.410200 42.801700 0
M  V30 4 C 75.471000 56.876100 43.093700 0
M  V30 5 C 76.309600 57.050300 41.819700 0
M  V30 6 F 75.361100 58.034200 43.724700 0
M  V30 7 F 76.072700 56.012500 43.913200 0
M  V30 8 H 72.373300 54.857900 41.244400 0
M  V30 9 H 72.401800 54.418900 42.924900 0
M  V30 10 H 73.512700 57.118600 42.168000 0
M  V30 11 H 73.481700 56.287900 43.724400 0
M  V30 12 H 77.270400 57.522600 42.027700 0
M  V30 13 H 76.499900 56.082400 41.355700 0
M  V30 14 H 75.789700 57.657900 41.081200 0
M  V30 15 R 73.413500 53.064900 41.585100 0
M  V30 END ATOM
M  V30 BEGIN BOND
M  V30 1 1 2 1
M  V30 2 1 3 2
M  V30 3 1 4 3
M  V30 4 1 5 4
M  V30 5 1 6 4
M  V30 6 1 7 4
M  V30 7 1 8 1
M  V30 8 1 9 1
M  V30 9 1 10 3
M  V30 10 1 11 3
M  V30 11 1 12 5
M  V30 12 1 13 5
M  V30 13 1 14 5
M  V30 14 1 15 1
M  V30 END BOND
M  V30 END CTAB
M  END
$$$$
R-group 926 (5518-3)
     RDKit          3D

  0  0  0  0  0  0  0  0  0  0999 V3000
M  V30 BEGIN CTAB
M  V30 COUNTS 22 23 0 0 1
M  V30 BEGIN ATOM
M  V30 1 C 73.497000 54.529200 42.521900 0
M  V30 2 C 74.147500 55.264900 41.357200 0 CFG=1
M  V30 3 C 73.163300 55.469100 40.173600 0
M  V30 4 C 73.294600 56.946700 39.886800 0 CFG=2
M  V30 5 C 74.702000 57.156000 39.325000 0
M  V30 6 C 75.618200 57.078600 40.561400 0
M  V30 7 C 74.613600 56.696600 41.658500 0 CFG=1
M  V30 8 C 73.380600 57.515200 41.295200 0
M  V30 9 H 72.481800 54.886700 42.704400 0
M  V30 10 H 74.073000 54.772100 43.414600 0
M  V30 11 H 75.036900 54.712800 41.076300 0
M  V30 12 H 73.386200 54.898000 39.274900 0
M  V30 13 H 72.136000 55.239200 40.442000 0
M  V30 14 H 72.478300 57.256300 39.243500 0
M  V30 15 H 74.871900 56.442400 38.540800 0
M  V30 16 H 74.872000 58.047700 38.784300 0
M  V30 17 H 76.073100 58.041900 40.790500 0
M  V30 18 H 76.429500 56.357900 40.447500 0
M  V30 19 H 74.999400 56.849500 42.666000 0
M  V30 20 H 72.531500 57.250200 41.921700 0
M  V30 21 H 73.533000 58.588700 41.324300 0
M  V30 22 R 73.478600 53.003100 42.309300 0
M  V30 END ATOM
M  V30 BEGIN BOND
M  V30 1 1 2 1
M  V30 2 1 3 2
M  V30 3 1 4 3
M  V30 4 1 5 4
M  V30 5 1 6 5
M  V30 6 1 7 2
M  V30 7 1 7 6
M  V30 8 1 8 4
M  V30 9 1 8 7
M  V30 10 1 9 1
M  V30 11 1 10 1
M  V30 12 1 2 11 CFG=3
M  V30 13 1 12 3
M  V30 14 1 13 3
M  V30 15 1 4 14 CFG=3
M  V30 16 1 15 5
M  V30 17 1 16 5
M  V30 18 1 17 6
M  V30 19 1 18 6
M  V30 20 1 7 19 CFG=1
M  V30 21 1 20 8
M  V30 22 1 21 8
M  V30 23 1 22 1
M  V30 END BOND
M  V30 END CTAB
M  END
$$$$
R-group 927 (6709-1)
     RDKit          3D

  0  0  0  0  0  0  0  0  0  0999 V3000
M  V30 BEGIN CTAB
M  V30 COUNTS 14 13 0 0 1
M  V30 BEGIN ATOM
M  V30 1 C 73.757900 55.159100 42.359300 0
M  V30 2 C 75.251400 55.535700 42.465800 0
M  V30 3 C 75.566100 56.970600 42.039400 0
M  V30 4 C 75.758800 57.073400 40.522700 0
M  V30 5 F 74.604800 56.857800 39.886500 0
M  V30 6 H 73.271500 55.814000 41.641100 0
M  V30 7 H 73.289400 55.403000 43.314900 0
M  V30 8 H 75.581900 55.379100 43.493100 0
M  V30 9 H 75.858300 54.876900 41.849900 0
M  V30 10 H 74.788600 57.653700 42.385500 0
M  V30 11 H 76.488900 57.285100 42.524900 0
M  V30 12 H 76.145300 58.048700 40.232100 0
M  V30 13 H 76.473400 56.336500 40.159000 0
M  V30 14 R 73.458700 53.679400 41.984500 0
M  V30 END ATOM
M  V30 BEGIN BOND
M  V30 1 1 2 1
M  V30 2 1 3 2
M  V30 3 1 4 3
M  V30 4 1 5 4
M  V30 5 1 6 1
M  V30 6 1 7 1
M  V30 7 1 8 2
M  V30 8 1 9 2
M  V30 9 1 10 3
M  V30 10 1 11 3
M  V30 11 1 12 4
M  V30 12 1 13 4
M  V30 13 1 14 1
M  V30 END BOND
M  V30 END CTAB
M  END
$$$$
R-group 928 (2964-1)
     RDKit          3D

  0  0  0  0  0  0  0  0  0  0999 V3000
M  V30 BEGIN CTAB
M  V30 COUNTS 13 13 0 0 1
M  V30 BEGIN ATOM
M  V30 1 C 74.386500 55.390200 42.665500 0 CFG=1
M  V30 2 C 75.796300 55.658000 42.154200 0
M  V30 3 C 75.743500 56.689000 41.026700 0
M  V30 4 C 74.255700 56.844800 40.880200 0
M  V30 5 O 73.672200 57.258000 39.884400 0
M  V30 6 N 73.672200 56.415800 41.978900 0
M  V30 7 H 74.334900 55.591900 43.733600 0
M  V30 8 H 76.471200 55.976400 42.950500 0
M  V30 9 H 76.072200 54.718900 41.724700 0
M  V30 10 H 76.194200 57.638600 41.317300 0
M  V30 11 H 76.223300 56.325800 40.124700 0
M  V30 12 H 72.672600 56.488500 42.087000 0
M  V30 13 R 73.816200 53.947900 42.355900 0
M  V30 END ATOM
M  V30 BEGIN BOND
M  V30 1 1 2 1
M  V30 2 1 3 2
M  V30 3 1 4 3
M  V30 4 2 5 4
M  V30 5 1 6 1
M  V30 6 1 6 4
M  V30 7 1 1 7 CFG=1
M  V30 8 1 8 2
M  V30 9 1 9 2
M  V30 10 1 10 3
M  V30 11 1 11 3
M  V30 12 1 12 6
M  V30 13 1 13 1
M  V30 END BOND
M  V30 END CTAB
M  END
$$$$
R-group 929 (21457-1)
     RDKit          3D

  0  0  0  0  0  0  0  0  0  0999 V3000
M  V30 BEGIN CTAB
M  V30 COUNTS 16 16 0 0 1
M  V30 BEGIN ATOM
M  V30 1 C 76.304500 57.039900 40.551100 0
M  V30 2 O 76.072200 56.861800 41.942700 0
M  V30 3 C 75.541400 55.603800 42.297300 0
M  V30 4 C 74.034600 55.456500 42.103900 0
M  V30 5 C 73.272300 56.671000 41.554700 0
M  V30 6 C 73.116500 56.275800 42.994100 0
M  V30 7 H 76.871000 57.957400 40.389200 0
M  V30 8 H 76.872200 56.211700 40.139200 0
M  V30 9 H 75.382400 57.112200 39.977600 0
M  V30 10 H 75.765300 55.430200 43.350000 0
M  V30 11 H 76.072200 54.856400 41.724900 0
M  V30 12 H 73.773200 57.627400 41.428200 0
M  V30 13 H 72.492400 56.508100 40.811700 0
M  V30 14 H 72.187400 55.815000 43.324700 0
M  V30 15 H 73.570900 56.939900 43.724300 0
M  V30 16 R 73.599500 53.984900 41.821500 0
M  V30 END ATOM
M  V30 BEGIN BOND
M  V30 1 1 2 1
M  V30 2 1 3 2
M  V30 3 1 4 3
M  V30 4 1 5 4
M  V30 5 1 6 4
M  V30 6 1 6 5
M  V30 7 1 7 1
M  V30 8 1 8 1
M  V30 9 1 9 1
M  V30 10 1 10 3
M  V30 11 1 11 3
M  V30 12 1 12 5
M  V30 13 1 13 5
M  V30 14 1 14 6
M  V30 15 1 15 6
M  V30 16 1 16 4
M  V30 END BOND
M  V30 END CTAB
M  END
$$$$
R-group 930 (39331-2)
     RDKit          3D

  0  0  0  0  0  0  0  0  0  0999 V3000
M  V30 BEGIN CTAB
M  V30 COUNTS 15 14 0 0 1
M  V30 BEGIN ATOM
M  V30 1 C 76.249200 57.320300 41.277000 0
M  V30 2 O 75.875300 56.824100 42.548100 0
M  V30 3 C 75.171900 55.585200 42.513600 0
M  V30 4 C 73.690300 55.696600 42.090300 0 CFG=1
M  V30 5 F 73.645800 56.161700 40.842600 0
M  V30 6 C 72.873300 54.372100 42.159800 0
M  V30 7 H 76.872800 58.200500 41.397900 0
M  V30 8 H 76.804400 56.583600 40.693700 0
M  V30 9 H 75.392400 57.652900 40.696500 0
M  V30 10 H 75.217600 55.177600 43.517000 0
M  V30 11 H 75.690100 54.887000 41.862800 0
M  V30 12 H 73.203100 56.444400 42.715500 0
M  V30 13 H 71.904000 54.453700 41.664700 0
M  V30 14 H 72.616500 54.111100 43.163200 0
M  V30 15 R 73.484900 53.133200 41.531600 0
M  V30 END ATOM
M  V30 BEGIN BOND
M  V30 1 1 2 1
M  V30 2 1 3 2
M  V30 3 1 4 3
M  V30 4 1 5 4
M  V30 5 1 6 4
M  V30 6 1 7 1
M  V30 7 1 8 1
M  V30 8 1 9 1
M  V30 9 1 10 3
M  V30 10 1 11 3
M  V30 11 1 4 12 CFG=1
M  V30 12 1 13 6
M  V30 13 1 14 6
M  V30 14 1 15 6
M  V30 END BOND
M  V30 END CTAB
M  END
$$$$
R-group 931 (6601-2)
     RDKit          3D

  0  0  0  0  0  0  0  0  0  0999 V3000
M  V30 BEGIN CTAB
M  V30 COUNTS 9 8 0 0 1
M  V30 BEGIN ATOM
M  V30 1 S 74.245800 55.637700 41.580700 0 CFG=2
M  V30 2 C 73.326700 56.289800 40.113400 0
M  V30 3 N 73.672300 56.453300 42.780500 0
M  V30 4 O 75.672200 55.682500 41.255500 0
M  V30 5 H 72.274200 56.016600 40.124900 0
M  V30 6 H 73.409800 57.376900 40.105600 0
M  V30 7 H 73.784600 55.911400 39.201000 0
M  V30 8 H 74.021700 56.134900 43.686500 0
M  V30 9 R 73.682400 53.857300 41.823400 0
M  V30 END ATOM
M  V30 BEGIN BOND
M  V30 1 1 2 1
M  V30 2 2 3 1
M  V30 3 2 4 1
M  V30 4 1 5 2
M  V30 5 1 6 2
M  V30 6 1 7 2
M  V30 7 1 8 3
M  V30 8 1 1 9 CFG=1
M  V30 END BOND
M  V30 END CTAB
M  END
$$$$
R-group 932 (35213-1)
     RDKit          3D

  0  0  0  0  0  0  0  0  0  0999 V3000
M  V30 BEGIN CTAB
M  V30 COUNTS 15 15 0 0 1
M  V30 BEGIN ATOM
M  V30 1 O 73.402200 54.488800 42.124900 0
M  V30 2 C 74.655900 55.051500 41.824900 0 CFG=2
M  V30 3 C 75.271500 55.705200 43.029400 0
M  V30 4 C 76.047500 56.790600 42.885600 0
M  V30 5 C 76.281600 57.333100 41.510500 0
M  V30 6 O 75.861500 56.451400 40.524500 0
M  V30 7 C 74.519600 56.030900 40.675100 0
M  V30 8 H 75.413800 54.341800 41.515000 0
M  V30 9 H 75.065900 55.293100 44.008200 0
M  V30 10 H 76.472100 57.314300 43.727400 0
M  V30 11 H 75.521000 58.054400 41.367100 0
M  V30 12 H 77.273000 57.737600 41.331900 0
M  V30 13 H 74.153700 55.567000 39.765100 0
M  V30 14 H 73.828500 56.839600 40.914100 0
M  V30 15 R 73.334000 53.082500 41.979800 0
M  V30 END ATOM
M  V30 BEGIN BOND
M  V30 1 1 2 1
M  V30 2 1 3 2
M  V30 3 2 4 3
M  V30 4 1 5 4
M  V30 5 1 6 5
M  V30 6 1 7 2
M  V30 7 1 7 6
M  V30 8 1 2 8 CFG=3
M  V30 9 1 9 3
M  V30 10 1 10 4
M  V30 11 1 11 5
M  V30 12 1 12 5
M  V30 13 1 13 7
M  V30 14 1 14 7
M  V30 15 1 15 1
M  V30 END BOND
M  V30 END CTAB
M  END
$$$$
R-group 933 (6760-1)
     RDKit          3D

  0  0  0  0  0  0  0  0  0  0999 V3000
M  V30 BEGIN CTAB
M  V30 COUNTS 27 29 0 0 1
M  V30 BEGIN ATOM
M  V30 1 O 72.899800 53.938300 42.120600 0
M  V30 2 C 73.531700 55.056700 41.523800 0 CFG=2
M  V30 3 C 73.500000 56.083900 42.684400 0
M  V30 4 C 74.024400 57.440000 42.185500 0 CFG=1
M  V30 5 C 75.479300 57.255700 41.678300 0
M  V30 6 C 75.477400 56.285500 40.509200 0 CFG=2
M  V30 7 C 74.539400 56.793400 39.375500 0
M  V30 8 C 73.089200 56.895600 39.894300 0 CFG=2
M  V30 9 C 73.054200 57.884300 41.073000 0
M  V30 10 C 72.661700 55.482300 40.318400 0
M  V30 11 C 75.002400 54.933400 41.042000 0
M  V30 12 H 72.493600 56.192600 43.094300 0
M  V30 13 H 74.109400 55.726300 43.518100 0
M  V30 14 H 74.011500 58.158100 43.001500 0
M  V30 15 H 76.108400 56.881300 42.487800 0
M  V30 16 H 75.980500 58.140900 41.319900 0
M  V30 17 H 76.500200 56.181100 40.163000 0
M  V30 18 H 74.872300 57.759000 38.990800 0
M  V30 19 H 74.564200 56.115900 38.521700 0
M  V30 20 H 72.445100 57.247400 39.087700 0
M  V30 21 H 72.072400 58.035600 41.495400 0
M  V30 22 H 73.272300 58.850400 40.674700 0
M  V30 23 H 72.810300 54.905700 39.418200 0
M  V30 24 H 71.610200 55.259100 40.522900 0
M  V30 25 H 75.666900 54.606600 41.845400 0
M  V30 26 H 75.095100 54.232500 40.226300 0
M  V30 27 R 73.285900 52.635900 41.772100 0
M  V30 END ATOM
M  V30 BEGIN BOND
M  V30 1 1 2 1 CFG=1
M  V30 2 1 3 2
M  V30 3 1 4 3
M  V30 4 1 5 4
M  V30 5 1 6 5
M  V30 6 1 7 6
M  V30 7 1 8 7
M  V30 8 1 9 4
M  V30 9 1 9 8
M  V30 10 1 10 2
M  V30 11 1 10 8
M  V30 12 1 11 2
M  V30 13 1 11 6
M  V30 14 1 12 3
M  V30 15 1 13 3
M  V30 16 1 4 14 CFG=1
M  V30 17 1 15 5
M  V30 18 1 16 5
M  V30 19 1 6 17 CFG=3
M  V30 20 1 18 7
M  V30 21 1 19 7
M  V30 22 1 8 20 CFG=3
M  V30 23 1 21 9
M  V30 24 1 22 9
M  V30 25 1 23 10
M  V30 26 1 24 10
M  V30 27 1 25 11
M  V30 28 1 26 11
M  V30 29 1 27 1
M  V30 END BOND
M  V30 END CTAB
M  END
$$$$
R-group 934 (1116-1)
     RDKit          3D

  0  0  0  0  0  0  0  0  0  0999 V3000
M  V30 BEGIN CTAB
M  V30 COUNTS 12 11 0 0 1
M  V30 BEGIN ATOM
M  V30 1 C 73.676500 55.089900 42.369400 0
M  V30 2 C 75.137300 55.456000 42.697900 0
M  V30 3 C 75.513300 56.873500 42.320800 0
M  V30 4 O 75.673800 56.859100 40.920600 0
M  V30 5 H 73.338100 55.680300 41.517000 0
M  V30 6 H 73.050500 55.433200 43.190300 0
M  V30 7 H 75.333300 55.274800 43.756700 0
M  V30 8 H 75.801400 54.800000 42.138800 0
M  V30 9 H 74.754900 57.591400 42.631000 0
M  V30 10 H 76.456800 57.172800 42.776200 0
M  V30 11 H 76.423400 56.323300 40.708700 0
M  V30 12 R 73.406000 53.587800 42.079800 0
M  V30 END ATOM
M  V30 BEGIN BOND
M  V30 1 1 2 1
M  V30 2 1 3 2
M  V30 3 1 4 3
M  V30 4 1 5 1
M  V30 5 1 6 1
M  V30 6 1 7 2
M  V30 7 1 8 2
M  V30 8 1 9 3
M  V30 9 1 10 3
M  V30 10 1 11 4
M  V30 11 1 12 1
M  V30 END BOND
M  V30 END CTAB
M  END
$$$$
R-group 935 (41132-1)
     RDKit          3D

  0  0  0  0  0  0  0  0  0  0999 V3000
M  V30 BEGIN CTAB
M  V30 COUNTS 13 13 0 0 1
M  V30 BEGIN ATOM
M  V30 1 C 73.819500 55.072600 42.441700 0
M  V30 2 O 74.669200 55.669600 41.470700 0
M  V30 3 C 73.951800 56.158500 40.348300 0
M  V30 4 C 73.446700 57.553600 40.517700 0
M  V30 5 C 74.631500 57.257800 39.604800 0
M  V30 6 H 72.872300 55.600400 42.496500 0
M  V30 7 H 74.277700 55.255300 43.414200 0
M  V30 8 H 73.383900 55.460500 39.748000 0
M  V30 9 H 72.442500 57.664100 40.124400 0
M  V30 10 H 73.645500 58.054800 41.462800 0
M  V30 11 H 75.635600 57.521400 39.934600 0
M  V30 12 H 74.472200 57.258400 38.528100 0
M  V30 13 R 73.590500 53.549700 42.244900 0
M  V30 END ATOM
M  V30 BEGIN BOND
M  V30 1 1 2 1
M  V30 2 1 3 2
M  V30 3 1 4 3
M  V30 4 1 5 3
M  V30 5 1 5 4
M  V30 6 1 6 1
M  V30 7 1 7 1
M  V30 8 1 8 3
M  V30 9 1 9 4
M  V30 10 1 10 4
M  V30 11 1 11 5
M  V30 12 1 12 5
M  V30 13 1 13 1
M  V30 END BOND
M  V30 END CTAB
M  END
$$$$
R-group 936 (41173-2)
     RDKit          3D

  0  0  0  0  0  0  0  0  0  0999 V3000
M  V30 BEGIN CTAB
M  V30 COUNTS 12 11 0 0 1
M  V30 BEGIN ATOM
M  V30 1 C 73.455000 55.035400 42.279500 0
M  V30 2 S 73.835200 56.316500 40.971300 0 CFG=1
M  V30 3 C 73.238600 57.870700 41.745900 0
M  V30 4 N 75.390800 56.458400 40.978900 0
M  V30 5 O 73.074200 56.101300 39.733000 0
M  V30 6 H 72.488000 55.257800 42.730000 0
M  V30 7 H 74.163800 55.211300 43.093200 0
M  V30 8 H 74.065900 58.392300 42.220500 0
M  V30 9 H 72.812800 58.507700 40.972200 0
M  V30 10 H 72.479100 57.659100 42.492800 0
M  V30 11 H 75.864200 55.672200 40.533400 0
M  V30 12 R 73.431900 53.531800 41.869500 0
M  V30 END ATOM
M  V30 BEGIN BOND
M  V30 1 1 2 1 CFG=1
M  V30 2 1 3 2
M  V30 3 2 4 2
M  V30 4 2 5 2
M  V30 5 1 6 1
M  V30 6 1 7 1
M  V30 7 1 8 3
M  V30 8 1 9 3
M  V30 9 1 10 3
M  V30 10 1 11 4
M  V30 11 1 12 1
M  V30 END BOND
M  V30 END CTAB
M  END
$$$$
R-group 937 (17357-1)
     RDKit          3D

  0  0  0  0  0  0  0  0  0  0999 V3000
M  V30 BEGIN CTAB
M  V30 COUNTS 20 20 0 0 1
M  V30 BEGIN ATOM
M  V30 1 O 73.551900 54.740000 41.765500 0
M  V30 2 C 73.240100 55.474700 42.924700 0
M  V30 3 C 73.273400 56.948800 42.575400 0
M  V30 4 O 74.596500 57.257900 42.262100 0
M  V30 5 C 75.088700 57.030600 40.945700 0
M  V30 6 C 74.145600 57.092400 39.751700 0
M  V30 7 C 76.476600 57.622200 40.883900 0
M  V30 8 C 76.285100 56.135600 40.994000 0
M  V30 9 H 72.235800 55.258300 43.296100 0
M  V30 10 H 73.980000 55.269400 43.702600 0
M  V30 11 H 72.608600 57.258000 41.777700 0
M  V30 12 H 72.991300 57.530900 43.453300 0
M  V30 13 H 74.694600 56.927800 38.827000 0
M  V30 14 H 73.382900 56.318700 39.812700 0
M  V30 15 H 73.652600 58.060800 39.691800 0
M  V30 16 H 76.814100 58.046900 39.942400 0
M  V30 17 H 76.872200 58.083100 41.781300 0
M  V30 18 H 76.471200 55.706100 41.968800 0
M  V30 19 H 76.520100 55.524000 40.127600 0
M  V30 20 R 73.378800 53.342500 41.843400 0
M  V30 END ATOM
M  V30 BEGIN BOND
M  V30 1 1 2 1
M  V30 2 1 3 2
M  V30 3 1 4 3
M  V30 4 1 5 4
M  V30 5 1 6 5
M  V30 6 1 7 5
M  V30 7 1 8 5
M  V30 8 1 8 7
M  V30 9 1 9 2
M  V30 10 1 10 2
M  V30 11 1 11 3
M  V30 12 1 12 3
M  V30 13 1 13 6
M  V30 14 1 14 6
M  V30 15 1 15 6
M  V30 16 1 16 7
M  V30 17 1 17 7
M  V30 18 1 18 8
M  V30 19 1 19 8
M  V30 20 1 20 1
M  V30 END BOND
M  V30 END CTAB
M  END
$$$$
R-group 938 (42001-1)
     RDKit          3D

  0  0  0  0  0  0  0  0  0  0999 V3000
M  V30 BEGIN CTAB
M  V30 COUNTS 14 14 0 0 1
M  V30 BEGIN ATOM
M  V30 1 O 73.414800 54.786500 42.325700 0
M  V30 2 C 73.778300 55.961700 41.596800 0 CFG=1
M  V30 3 C 73.952000 57.109100 42.598900 0
M  V30 4 C 75.422800 56.691500 42.706700 0 CFG=1
M  V30 5 C 75.672700 55.658200 43.724500 0
M  V30 6 N 75.878300 54.858000 44.526400 0
M  V30 7 C 75.281400 56.107700 41.302300 0
M  V30 8 H 73.111300 56.196100 40.766800 0
M  V30 9 H 73.364200 57.002300 43.509900 0
M  V30 10 H 73.818500 58.094500 42.146600 0
M  V30 11 H 76.135900 57.511300 42.785000 0
M  V30 12 H 75.485500 56.836200 40.511700 0
M  V30 13 H 75.818700 55.173900 41.135700 0
M  V30 14 R 73.486100 53.490300 41.737600 0
M  V30 END ATOM
M  V30 BEGIN BOND
M  V30 1 1 2 1
M  V30 2 1 3 2
M  V30 3 1 4 3
M  V30 4 1 5 4
M  V30 5 3 6 5
M  V30 6 1 7 2
M  V30 7 1 7 4
M  V30 8 1 2 8 CFG=3
M  V30 9 1 9 3
M  V30 10 1 10 3
M  V30 11 1 4 11 CFG=3
M  V30 12 1 12 7
M  V30 13 1 13 7
M  V30 14 1 14 1
M  V30 END BOND
M  V30 END CTAB
M  END
$$$$
R-group 939 (629-1)
     RDKit          3D

  0  0  0  0  0  0  0  0  0  0999 V3000
M  V30 BEGIN CTAB
M  V30 COUNTS 15 14 0 0 1
M  V30 BEGIN ATOM
M  V30 1 C 72.757200 57.783800 40.525500 0
M  V30 2 C 73.672000 58.186300 41.686300 0
M  V30 3 C 73.568200 57.451600 43.021900 0
M  V30 4 N 73.672100 56.007100 42.924700 0
M  V30 5 C 74.352700 55.235800 42.072200 0
M  V30 6 O 75.262100 55.646200 41.352200 0
M  V30 7 H 73.272000 57.981300 39.583300 0
M  V30 8 H 72.484700 56.730200 40.524700 0
M  V30 9 H 71.853900 58.391300 40.525500 0
M  V30 10 H 73.488100 59.240100 41.884700 0
M  V30 11 H 74.696600 58.057400 41.343500 0
M  V30 12 H 72.614100 57.684300 43.495500 0
M  V30 13 H 74.341200 57.817000 43.697000 0
M  V30 14 H 73.049500 55.498300 43.549000 0
M  V30 15 R 73.875800 53.771600 42.030800 0
M  V30 END ATOM
M  V30 BEGIN BOND
M  V30 1 1 2 1
M  V30 2 1 3 2
M  V30 3 1 4 3
M  V30 4 1 5 4
M  V30 5 2 6 5
M  V30 6 1 7 1
M  V30 7 1 8 1
M  V30 8 1 9 1
M  V30 9 1 10 2
M  V30 10 1 11 2
M  V30 11 1 12 3
M  V30 12 1 13 3
M  V30 13 1 14 4
M  V30 14 1 15 5
M  V30 END BOND
M  V30 END CTAB
M  END
$$$$
R-group 940 (35211-4)
     RDKit          3D

  0  0  0  0  0  0  0  0  0  0999 V3000
M  V30 BEGIN CTAB
M  V30 COUNTS 17 17 0 0 1
M  V30 BEGIN ATOM
M  V30 1 O 74.520800 54.734500 41.889900 0
M  V30 2 C 73.668300 55.833900 41.776700 0 CFG=1
M  V30 3 C 73.163900 56.229300 43.155100 0
M  V30 4 C 73.331900 57.736600 43.162600 0
M  V30 5 O 73.519000 58.058000 41.799400 0
M  V30 6 C 74.346500 57.063400 41.211400 0 CFG=1
M  V30 7 C 75.844900 57.177100 41.571200 0
M  V30 8 H 72.872200 55.623000 41.082500 0
M  V30 9 H 72.130200 55.920200 43.324700 0
M  V30 10 H 73.764800 55.760900 43.929400 0
M  V30 11 H 72.472300 58.243300 43.573000 0
M  V30 12 H 74.209700 58.050500 43.724600 0
M  V30 13 H 74.243000 57.095200 40.125800 0
M  V30 14 H 76.396900 56.323700 41.175700 0
M  V30 15 H 76.300200 58.058900 41.130300 0
M  V30 16 H 76.022200 57.201800 42.646100 0
M  V30 17 R 73.831300 53.505900 41.995400 0
M  V30 END ATOM
M  V30 BEGIN BOND
M  V30 1 1 2 1
M  V30 2 1 3 2
M  V30 3 1 4 3
M  V30 4 1 5 4
M  V30 5 1 6 2
M  V30 6 1 6 5
M  V30 7 1 7 6
M  V30 8 1 2 8 CFG=3
M  V30 9 1 9 3
M  V30 10 1 10 3
M  V30 11 1 11 4
M  V30 12 1 12 4
M  V30 13 1 6 13 CFG=3
M  V30 14 1 14 7
M  V30 15 1 15 7
M  V30 16 1 16 7
M  V30 17 1 17 1
M  V30 END BOND
M  V30 END CTAB
M  END
$$$$
R-group 941 (4366-1)
     RDKit          3D

  0  0  0  0  0  0  0  0  0  0999 V3000
M  V30 BEGIN CTAB
M  V30 COUNTS 15 14 0 0 1
M  V30 BEGIN ATOM
M  V30 1 O 74.010500 54.938500 42.013700 0
M  V30 2 C 73.671900 55.738900 43.128700 0
M  V30 3 C 74.090400 57.177700 42.839100 0
M  V30 4 C 73.325100 57.853900 41.697100 0
M  V30 5 C 73.520400 57.223700 40.306800 0
M  V30 6 F 74.787900 56.857900 40.120200 0
M  V30 7 H 72.599800 55.697100 43.324400 0
M  V30 8 H 74.197800 55.384500 44.012700 0
M  V30 9 H 73.918800 57.781100 43.724700 0
M  V30 10 H 75.164100 57.216800 42.649900 0
M  V30 11 H 72.270800 57.960600 41.930900 0
M  V30 12 H 73.672300 58.869800 41.691600 0
M  V30 13 H 72.905500 56.334300 40.178500 0
M  V30 14 H 73.272300 57.923900 39.509600 0
M  V30 15 R 73.631900 53.577800 42.097800 0
M  V30 END ATOM
M  V30 BEGIN BOND
M  V30 1 1 2 1
M  V30 2 1 3 2
M  V30 3 1 4 3
M  V30 4 1 5 4
M  V30 5 1 6 5
M  V30 6 1 7 2
M  V30 7 1 8 2
M  V30 8 1 9 3
M  V30 9 1 10 3
M  V30 10 1 11 4
M  V30 11 1 12 4
M  V30 12 1 13 5
M  V30 13 1 14 5
M  V30 14 1 15 1
M  V30 END BOND
M  V30 END CTAB
M  END
$$$$
R-group 942 (7328-1)
     RDKit          3D

  0  0  0  0  0  0  0  0  0  0999 V3000
M  V30 BEGIN CTAB
M  V30 COUNTS 12 12 0 0 1
M  V30 BEGIN ATOM
M  V30 1 C 74.153000 55.122300 41.889300 0
M  V30 2 C 73.672200 56.166300 42.632900 0
M  V30 3 N 74.472300 57.244100 42.343700 0
M  V30 4 C 75.452200 56.812800 41.542400 0
M  V30 5 C 76.671800 57.609500 41.223500 0
M  V30 6 N 75.272200 55.553300 41.185100 0
M  V30 7 H 72.851200 56.216000 43.334100 0
M  V30 8 H 77.243400 57.149500 40.419800 0
M  V30 9 H 76.472200 58.627100 40.924700 0
M  V30 10 H 77.272300 57.658000 42.124700 0
M  V30 11 H 74.412800 58.159000 42.766700 0
M  V30 12 R 73.699700 53.691100 41.872500 0
M  V30 END ATOM
M  V30 BEGIN BOND
M  V30 1 2 2 1
M  V30 2 1 3 2
M  V30 3 1 4 3
M  V30 4 1 5 4
M  V30 5 1 6 1
M  V30 6 2 6 4
M  V30 7 1 7 2
M  V30 8 1 8 5
M  V30 9 1 9 5
M  V30 10 1 10 5
M  V30 11 1 11 3
M  V30 12 1 12 1
M  V30 END BOND
M  V30 END CTAB
M  END
$$$$
R-group 943 (20063-1)
     RDKit          3D

  0  0  0  0  0  0  0  0  0  0999 V3000
M  V30 BEGIN CTAB
M  V30 COUNTS 14 14 0 0 1
M  V30 BEGIN ATOM
M  V30 1 N 73.747200 55.074900 41.805800 0
M  V30 2 C 75.058000 55.601200 41.445400 0
M  V30 3 C 74.788300 56.723400 42.443500 0
M  V30 4 C 75.952700 57.213700 43.276600 0
M  V30 5 F 76.471700 56.222500 44.003900 0
M  V30 6 F 76.872400 57.688100 42.446500 0
M  V30 7 C 73.759200 55.789200 43.076200 0
M  V30 8 H 75.869400 54.941400 41.743700 0
M  V30 9 H 75.097100 55.902800 40.398600 0
M  V30 10 H 74.280600 57.546600 41.936200 0
M  V30 11 H 75.672200 58.013700 43.954400 0
M  V30 12 H 72.783100 56.217400 43.301900 0
M  V30 13 H 74.173100 55.210400 43.893600 0
M  V30 14 R 73.592500 53.612200 41.836800 0
M  V30 END ATOM
M  V30 BEGIN BOND
M  V30 1 1 2 1
M  V30 2 1 3 2
M  V30 3 1 4 3
M  V30 4 1 5 4
M  V30 5 1 6 4
M  V30 6 1 7 1
M  V30 7 1 7 3
M  V30 8 1 8 2
M  V30 9 1 9 2
M  V30 10 1 10 3
M  V30 11 1 11 4
M  V30 12 1 12 7
M  V30 13 1 13 7
M  V30 14 1 14 1
M  V30 END BOND
M  V30 END CTAB
M  END
$$$$
R-group 944 (16189-1)
     RDKit          3D

  0  0  0  0  0  0  0  0  0  0999 V3000
M  V30 BEGIN CTAB
M  V30 COUNTS 19 18 0 0 1
M  V30 BEGIN ATOM
M  V30 1 O 73.681900 54.788100 42.133500 0
M  V30 2 C 74.967200 55.386700 42.006800 0 CFG=2
M  V30 3 C 75.569200 55.514000 43.415600 0
M  V30 4 C 74.766300 56.757600 41.332800 0
M  V30 5 C 74.110500 56.664400 39.944300 0
M  V30 6 C 73.945400 57.710200 42.230700 0
M  V30 7 O 76.072500 57.257900 41.113000 0
M  V30 8 H 75.646700 54.795000 41.401200 0
M  V30 9 H 76.304700 56.317200 43.503800 0
M  V30 10 H 74.762400 55.657900 44.127100 0
M  V30 11 H 76.072200 54.608600 43.725000 0
M  V30 12 H 73.105900 56.246000 40.006300 0
M  V30 13 H 74.688000 56.049900 39.258400 0
M  V30 14 H 74.018900 57.647100 39.479800 0
M  V30 15 H 73.004700 57.245900 42.528900 0
M  V30 16 H 74.473800 57.977100 43.146100 0
M  V30 17 H 73.678000 58.636400 41.724100 0
M  V30 18 H 76.535800 56.672400 40.533700 0
M  V30 19 R 73.522800 53.389400 41.923900 0
M  V30 END ATOM
M  V30 BEGIN BOND
M  V30 1 1 2 1
M  V30 2 1 3 2
M  V30 3 1 4 2
M  V30 4 1 5 4
M  V30 5 1 6 4
M  V30 6 1 7 4
M  V30 7 1 2 8 CFG=3
M  V30 8 1 9 3
M  V30 9 1 10 3
M  V30 10 1 11 3
M  V30 11 1 12 5
M  V30 12 1 13 5
M  V30 13 1 14 5
M  V30 14 1 15 6
M  V30 15 1 16 6
M  V30 16 1 17 6
M  V30 17 1 18 7
M  V30 18 1 19 1
M  V30 END BOND
M  V30 END CTAB
M  END
$$$$
R-group 945 (146-1)
     RDKit          3D

  0  0  0  0  0  0  0  0  0  0999 V3000
M  V30 BEGIN CTAB
M  V30 COUNTS 8 7 0 0 1
M  V30 BEGIN ATOM
M  V30 1 C 73.640400 56.570100 42.323400 0
M  V30 2 C 74.585400 55.378200 42.509300 0
M  V30 3 H 74.148900 57.503700 42.563000 0
M  V30 4 H 73.273400 56.652900 41.302100 0
M  V30 5 H 72.786600 56.487900 42.995100 0
M  V30 6 H 74.913500 55.404400 43.549400 0
M  V30 7 H 75.488200 55.535300 41.919300 0
M  V30 8 R 73.966100 53.990500 42.182800 0
M  V30 END ATOM
M  V30 BEGIN BOND
M  V30 1 1 2 1
M  V30 2 1 3 1
M  V30 3 1 4 1
M  V30 4 1 5 1
M  V30 5 1 6 2
M  V30 6 1 7 2
M  V30 7 1 8 2
M  V30 END BOND
M  V30 END CTAB
M  END
$$$$
R-group 946 (17149-1)
     RDKit          3D

  0  0  0  0  0  0  0  0  0  0999 V3000
M  V30 BEGIN CTAB
M  V30 COUNTS 16 16 0 0 1
M  V30 BEGIN ATOM
M  V30 1 N 73.441900 54.428200 42.124100 0
M  V30 2 C 74.259500 55.316300 41.569500 0
M  V30 3 O 75.271600 55.094700 40.924900 0
M  V30 4 N 73.672200 56.482200 41.614000 0
M  V30 5 C 73.342100 57.287400 42.766100 0
M  V30 6 C 73.217000 58.425200 41.779100 0
M  V30 7 O 72.072300 59.258000 41.724700 0
M  V30 8 C 73.523700 57.501700 40.609300 0
M  V30 9 H 72.472200 56.965000 43.314300 0
M  V30 10 H 74.188500 57.411900 43.442900 0
M  V30 11 H 74.072200 58.949600 42.118500 0
M  V30 12 H 74.441400 57.655400 40.045200 0
M  V30 13 H 72.676300 57.325300 39.946000 0
M  V30 14 H 72.681300 54.804500 42.670400 0
M  V30 15 H 71.313100 58.734900 41.956000 0
M  V30 16 R 73.414900 53.009000 41.938600 0
M  V30 END ATOM
M  V30 BEGIN BOND
M  V30 1 1 2 1
M  V30 2 2 3 2
M  V30 3 1 4 2
M  V30 4 1 5 4
M  V30 5 1 6 5
M  V30 6 1 7 6
M  V30 7 1 8 4
M  V30 8 1 8 6
M  V30 9 1 9 5
M  V30 10 1 10 5
M  V30 11 1 11 6
M  V30 12 1 12 8
M  V30 13 1 13 8
M  V30 14 1 14 1
M  V30 15 1 15 7
M  V30 16 1 16 1
M  V30 END BOND
M  V30 END CTAB
M  END
$$$$
R-group 947 (37768-1)
     RDKit          3D

  0  0  0  0  0  0  0  0  0  0999 V3000
M  V30 BEGIN CTAB
M  V30 COUNTS 16 16 0 0 1
M  V30 BEGIN ATOM
M  V30 1 C 73.848400 55.200500 41.765700 0 CFG=2
M  V30 2 C 73.316500 55.902500 43.047200 0
M  V30 3 O 73.272900 57.313700 42.967100 0
M  V30 4 C 73.275900 55.860000 40.500200 0
M  V30 5 C 73.671700 57.265000 40.159800 0
M  V30 6 C 74.127700 56.160900 39.276300 0
M  V30 7 H 74.924600 55.374800 41.727000 0
M  V30 8 H 72.309300 55.579500 43.308300 0
M  V30 9 H 73.962000 55.657800 43.887300 0
M  V30 10 H 72.238700 55.618100 40.284100 0
M  V30 11 H 72.874300 57.935300 39.851300 0
M  V30 12 H 74.443800 57.658000 40.806900 0
M  V30 13 H 75.207100 56.058300 39.324700 0
M  V30 14 H 73.675700 56.086200 38.289400 0
M  V30 15 H 74.150400 57.633700 42.826000 0
M  V30 16 R 73.625500 53.644600 41.820100 0
M  V30 END ATOM
M  V30 BEGIN BOND
M  V30 1 1 2 1
M  V30 2 1 3 2
M  V30 3 1 4 1
M  V30 4 1 5 4
M  V30 5 1 6 4
M  V30 6 1 6 5
M  V30 7 1 1 7 CFG=3
M  V30 8 1 8 2
M  V30 9 1 9 2
M  V30 10 1 10 4
M  V30 11 1 11 5
M  V30 12 1 12 5
M  V30 13 1 13 6
M  V30 14 1 14 6
M  V30 15 1 15 3
M  V30 16 1 16 1
M  V30 END BOND
M  V30 END CTAB
M  END
$$$$
R-group 948 (2981-1)
     RDKit          3D

  0  0  0  0  0  0  0  0  0  0999 V3000
M  V30 BEGIN CTAB
M  V30 COUNTS 16 16 0 0 1
M  V30 BEGIN ATOM
M  V30 1 O 73.712000 54.693100 41.537300 0
M  V30 2 C 73.647500 55.407500 42.737600 0
M  V30 3 C 75.041200 55.454900 43.371700 0
M  V30 4 C 75.638600 56.796900 42.956800 0
M  V30 5 C 74.436100 57.678300 42.643200 0
M  V30 6 C 73.239300 56.823800 42.443100 0
M  V30 7 H 72.836400 55.019300 43.322100 0
M  V30 8 H 74.989600 55.258600 44.444600 0
M  V30 9 H 75.672200 54.677300 42.971200 0
M  V30 10 H 76.276800 57.225900 43.727200 0
M  V30 11 H 76.243900 56.671800 42.058900 0
M  V30 12 H 74.261400 58.361400 43.466700 0
M  V30 13 H 74.472900 58.260800 41.725100 0
M  V30 14 H 72.873000 56.929500 41.421000 0
M  V30 15 H 72.476700 57.151200 43.145500 0
M  V30 16 R 73.426800 53.308700 41.657700 0
M  V30 END ATOM
M  V30 BEGIN BOND
M  V30 1 1 2 1
M  V30 2 1 3 2
M  V30 3 1 4 3
M  V30 4 1 5 4
M  V30 5 1 6 2
M  V30 6 1 6 5
M  V30 7 1 7 2
M  V30 8 1 8 3
M  V30 9 1 9 3
M  V30 10 1 10 4
M  V30 11 1 11 4
M  V30 12 1 12 5
M  V30 13 1 13 5
M  V30 14 1 14 6
M  V30 15 1 15 6
M  V30 16 1 16 1
M  V30 END BOND
M  V30 END CTAB
M  END
$$$$
R-group 949 (3170-1)
     RDKit          3D

  0  0  0  0  0  0  0  0  0  0999 V3000
M  V30 BEGIN CTAB
M  V30 COUNTS 16 16 0 0 1
M  V30 BEGIN ATOM
M  V30 1 C 73.944300 54.610400 41.786700 0
M  V30 2 C 73.358600 55.371000 40.759700 0
M  V30 3 C 73.675900 56.728100 40.777800 0
M  V30 4 C 72.964500 57.678200 39.885600 0
M  V30 5 N 74.517700 57.257800 41.671800 0
M  V30 6 C 75.102300 56.429900 42.519100 0
M  V30 7 C 76.141000 57.025700 43.426400 0
M  V30 8 N 74.859100 55.137500 42.635000 0
M  V30 9 H 72.626600 54.996800 40.063400 0
M  V30 10 H 72.318400 57.155900 39.179400 0
M  V30 11 H 72.360000 58.333500 40.524300 0
M  V30 12 H 73.671800 58.285000 39.323500 0
M  V30 13 H 76.860000 57.628900 42.863000 0
M  V30 14 H 75.672700 57.689700 44.124500 0
M  V30 15 H 76.642600 56.269900 44.028800 0
M  V30 16 R 73.581300 53.152500 41.958900 0
M  V30 END ATOM
M  V30 BEGIN BOND
M  V30 1 2 2 1
M  V30 2 1 3 2
M  V30 3 1 4 3
M  V30 4 2 5 3
M  V30 5 1 6 5
M  V30 6 1 7 6
M  V30 7 1 8 1
M  V30 8 2 8 6
M  V30 9 1 9 2
M  V30 10 1 10 4
M  V30 11 1 11 4
M  V30 12 1 12 4
M  V30 13 1 13 7
M  V30 14 1 14 7
M  V30 15 1 15 7
M  V30 16 1 16 1
M  V30 END BOND
M  V30 END CTAB
M  END
$$$$
R-group 950 (18148-1)
     RDKit          3D

  0  0  0  0  0  0  0  0  0  0999 V3000
M  V30 BEGIN CTAB
M  V30 COUNTS 18 17 0 0 1
M  V30 BEGIN ATOM
M  V30 1 C 73.154800 57.574200 40.156800 0
M  V30 2 C 73.844300 57.667100 41.531300 0
M  V30 3 C 75.147900 56.857900 41.626100 0 CFG=1
M  V30 4 O 75.672200 56.858000 42.924700 0
M  V30 5 C 74.933300 55.391900 41.327500 0
M  V30 6 C 73.794500 54.781200 42.165900 0
M  V30 7 H 72.186300 58.057700 40.187800 0
M  V30 8 H 73.742200 58.035300 39.361700 0
M  V30 9 H 72.944600 56.545500 39.865900 0
M  V30 10 H 73.139200 57.377000 42.307900 0
M  V30 11 H 74.065400 58.704500 41.753100 0
M  V30 12 H 75.896200 57.267500 40.947700 0
M  V30 13 H 75.864200 54.855100 41.476600 0
M  V30 14 H 74.704300 55.333700 40.270100 0
M  V30 15 H 72.871600 55.258700 41.878200 0
M  V30 16 H 73.923100 55.005800 43.224300 0
M  V30 17 H 75.014100 56.510800 43.509000 0
M  V30 18 R 73.603600 53.284600 41.986000 0
M  V30 END ATOM
M  V30 BEGIN BOND
M  V30 1 1 2 1
M  V30 2 1 3 2
M  V30 3 1 4 3
M  V30 4 1 5 3
M  V30 5 1 6 5
M  V30 6 1 7 1
M  V30 7 1 8 1
M  V30 8 1 9 1
M  V30 9 1 10 2
M  V30 10 1 11 2
M  V30 11 1 3 12 CFG=3
M  V30 12 1 13 5
M  V30 13 1 14 5
M  V30 14 1 15 6
M  V30 15 1 16 6
M  V30 16 1 17 4
M  V30 17 1 18 6
M  V30 END BOND
M  V30 END CTAB
M  END
$$$$
R-group 951 (28837-1)
     RDKit          3D

  0  0  0  0  0  0  0  0  0  0999 V3000
M  V30 BEGIN CTAB
M  V30 COUNTS 14 14 0 0 1
M  V30 BEGIN ATOM
M  V30 1 C 72.643200 58.869000 42.210600 0
M  V30 2 C 73.620500 58.013100 43.040700 0
M  V30 3 C 74.125500 56.841500 42.339200 0
M  V30 4 N 73.653900 55.654400 42.533900 0
M  V30 5 C 74.260000 54.854900 41.644600 0
M  V30 6 C 75.245300 55.584400 41.027500 0
M  V30 7 O 75.137500 56.886000 41.436400 0
M  V30 8 H 72.472200 59.853600 42.640600 0
M  V30 9 H 72.949400 58.972000 41.180200 0
M  V30 10 H 71.654100 58.459000 42.145400 0
M  V30 11 H 73.123600 57.681800 43.946600 0
M  V30 12 H 74.509000 58.457300 43.416300 0
M  V30 13 H 76.020300 55.368400 40.309000 0
M  V30 14 R 73.785700 53.460000 41.643800 0
M  V30 END ATOM
M  V30 BEGIN BOND
M  V30 1 1 2 1
M  V30 2 1 3 2
M  V30 3 2 4 3
M  V30 4 1 5 4
M  V30 5 2 6 5
M  V30 6 1 7 3
M  V30 7 1 7 6
M  V30 8 1 8 1
M  V30 9 1 9 1
M  V30 10 1 10 1
M  V30 11 1 11 2
M  V30 12 1 12 2
M  V30 13 1 13 6
M  V30 14 1 14 5
M  V30 END BOND
M  V30 END CTAB
M  END
$$$$
R-group 952 (1361-1)
     RDKit          3D

  0  0  0  0  0  0  0  0  0  0999 V3000
M  V30 BEGIN CTAB
M  V30 COUNTS 7 7 0 0 1
M  V30 BEGIN ATOM
M  V30 1 C 74.043000 55.071100 41.851300 0
M  V30 2 C 73.672300 56.090800 40.929800 0
M  V30 3 N 74.072000 57.256100 41.359500 0
M  V30 4 O 74.792200 56.971700 42.524200 0
M  V30 5 N 74.761800 55.608200 42.805900 0
M  V30 6 H 73.078900 56.018700 40.030900 0
M  V30 7 R 73.669000 53.609700 41.832400 0
M  V30 END ATOM
M  V30 BEGIN BOND
M  V30 1 1 2 1
M  V30 2 2 3 2
M  V30 3 1 4 3
M  V30 4 2 5 1
M  V30 5 1 5 4
M  V30 6 1 6 2
M  V30 7 1 7 1
M  V30 END BOND
M  V30 END CTAB
M  END
$$$$
R-group 953 (11192-1)
     RDKit          3D

  0  0  0  0  0  0  0  0  0  0999 V3000
M  V30 BEGIN CTAB
M  V30 COUNTS 18 17 0 0 1
M  V30 BEGIN ATOM
M  V30 1 C 73.102500 57.577400 43.100700 0
M  V30 2 C 73.196500 56.060500 43.213800 0
M  V30 3 C 73.964600 55.396700 42.052800 0 CFG=1
M  V30 4 C 75.491600 55.572800 42.224700 0
M  V30 5 O 75.926700 56.870500 41.929900 0
M  V30 6 C 76.106200 57.098700 40.545000 0
M  V30 7 H 72.589300 57.981400 43.977200 0
M  V30 8 H 74.101300 58.023500 43.074900 0
M  V30 9 H 72.555800 57.896200 42.208700 0
M  V30 10 H 72.191200 55.654500 43.324500 0
M  V30 11 H 73.678600 55.782200 44.124600 0
M  V30 12 H 73.672300 55.928500 41.155200 0
M  V30 13 H 75.780000 55.335600 43.245100 0
M  V30 14 H 76.067800 54.883300 41.613100 0
M  V30 15 H 76.486700 58.099900 40.405700 0
M  V30 16 H 76.832000 56.405700 40.140900 0
M  V30 17 H 75.197600 56.993300 39.958600 0
M  V30 18 R 73.565900 53.899700 41.817200 0
M  V30 END ATOM
M  V30 BEGIN BOND
M  V30 1 1 2 1
M  V30 2 1 3 2
M  V30 3 1 4 3
M  V30 4 1 5 4
M  V30 5 1 6 5
M  V30 6 1 7 1
M  V30 7 1 8 1
M  V30 8 1 9 1
M  V30 9 1 10 2
M  V30 10 1 11 2
M  V30 11 1 3 12 CFG=3
M  V30 12 1 13 4
M  V30 13 1 14 4
M  V30 14 1 15 6
M  V30 15 1 16 6
M  V30 16 1 17 6
M  V30 17 1 18 3
M  V30 END BOND
M  V30 END CTAB
M  END
$$$$
R-group 954 (27675-2)
     RDKit          3D

  0  0  0  0  0  0  0  0  0  0999 V3000
M  V30 BEGIN CTAB
M  V30 COUNTS 13 12 0 0 1
M  V30 BEGIN ATOM
M  V30 1 O 73.760400 54.938200 42.058200 0
M  V30 2 C 74.740500 55.561100 41.236000 0
M  V30 3 C 74.936700 56.985600 41.729300 0 CFG=2
M  V30 4 O 75.672100 56.857700 42.924900 0
M  V30 5 C 73.585600 57.713700 41.885500 0
M  V30 6 F 72.926800 57.658500 40.727300 0
M  V30 7 H 75.682700 55.013100 41.230400 0
M  V30 8 H 74.378600 55.621400 40.209600 0
M  V30 9 H 75.564400 57.527200 41.020800 0
M  V30 10 H 72.953700 57.251100 42.645500 0
M  V30 11 H 73.682100 58.771200 42.123900 0
M  V30 12 H 75.914600 57.715400 43.243300 0
M  V30 13 R 73.562800 53.546600 41.876000 0
M  V30 END ATOM
M  V30 BEGIN BOND
M  V30 1 1 2 1
M  V30 2 1 3 2
M  V30 3 1 4 3
M  V30 4 1 5 3
M  V30 5 1 6 5
M  V30 6 1 7 2
M  V30 7 1 8 2
M  V30 8 1 3 9 CFG=3
M  V30 9 1 10 5
M  V30 10 1 11 5
M  V30 11 1 12 4
M  V30 12 1 13 1
M  V30 END BOND
M  V30 END CTAB
M  END
$$$$
R-group 955 (18317-3)
     RDKit          3D

  0  0  0  0  0  0  0  0  0  0999 V3000
M  V30 BEGIN CTAB
M  V30 COUNTS 21 21 0 0 1
M  V30 BEGIN ATOM
M  V30 1 C 74.351300 55.501400 41.635200 0 CFG=1
M  V30 2 C 75.795600 55.785100 41.155100 0
M  V30 3 C 74.273600 56.058800 43.075400 0
M  V30 4 C 73.593400 57.404000 43.015900 0
M  V30 5 C 73.591300 57.755400 41.543200 0 CFG=2
M  V30 6 C 72.610100 58.847600 41.211200 0
M  V30 7 C 73.504200 56.451700 40.759500 0
M  V30 8 H 76.127000 56.809800 41.304100 0
M  V30 9 H 76.472200 55.258000 41.744400 0
M  V30 10 H 76.015100 55.571400 40.124400 0
M  V30 11 H 73.680400 55.435100 43.721400 0
M  V30 12 H 75.255900 56.128200 43.544400 0
M  V30 13 H 74.131700 58.138000 43.609200 0
M  V30 14 H 72.579300 57.334000 43.414500 0
M  V30 15 H 74.580900 58.103600 41.325200 0
M  V30 16 H 71.672500 58.564800 41.615300 0
M  V30 17 H 72.861100 59.752400 41.745300 0
M  V30 18 H 72.534600 59.068600 40.140900 0
M  V30 19 H 73.941700 56.590800 39.767000 0
M  V30 20 H 72.497000 56.121200 40.525400 0
M  V30 21 R 73.870500 53.985500 41.664900 0
M  V30 END ATOM
M  V30 BEGIN BOND
M  V30 1 1 2 1
M  V30 2 1 3 1
M  V30 3 1 4 3
M  V30 4 1 5 4
M  V30 5 1 6 5
M  V30 6 1 7 1
M  V30 7 1 7 5
M  V30 8 1 8 2
M  V30 9 1 9 2
M  V30 10 1 10 2
M  V30 11 1 11 3
M  V30 12 1 12 3
M  V30 13 1 13 4
M  V30 14 1 14 4
M  V30 15 1 5 15 CFG=3
M  V30 16 1 16 6
M  V30 17 1 17 6
M  V30 18 1 18 6
M  V30 19 1 19 7
M  V30 20 1 20 7
M  V30 21 1 1 21 CFG=1
M  V30 END BOND
M  V30 END CTAB
M  END
$$$$
R-group 956 (711-1)
     RDKit          3D

  0  0  0  0  0  0  0  0  0  0999 V3000
M  V30 BEGIN CTAB
M  V30 COUNTS 9 8 0 0 1
M  V30 BEGIN ATOM
M  V30 1 O 73.685500 54.835600 42.124900 0
M  V30 2 C 74.785000 55.404000 41.437100 0
M  V30 3 C 75.158500 56.695500 42.114800 0
M  V30 4 F 76.075000 57.257900 41.332500 0
M  V30 5 F 74.072300 57.464100 42.207800 0
M  V30 6 F 75.671900 56.457800 43.323300 0
M  V30 7 H 75.668300 54.763700 41.429500 0
M  V30 8 H 74.506900 55.609900 40.402900 0
M  V30 9 R 73.503900 53.448900 41.926200 0
M  V30 END ATOM
M  V30 BEGIN BOND
M  V30 1 1 2 1
M  V30 2 1 3 2
M  V30 3 1 4 3
M  V30 4 1 5 3
M  V30 5 1 6 3
M  V30 6 1 7 2
M  V30 7 1 8 2
M  V30 8 1 9 1
M  V30 END BOND
M  V30 END CTAB
M  END
$$$$
R-group 957 (2537-1)
     RDKit          3D

  0  0  0  0  0  0  0  0  0  0999 V3000
M  V30 BEGIN CTAB
M  V30 COUNTS 13 12 0 0 1
M  V30 BEGIN ATOM
M  V30 1 C 73.173500 54.562700 41.999500 0
M  V30 2 N 74.459300 55.239200 41.864900 0
M  V30 3 S 74.454800 56.809100 41.217400 0
M  V30 4 C 76.230900 57.259200 41.339700 0
M  V30 5 O 74.078900 56.689800 39.802000 0
M  V30 6 O 73.671300 57.652200 42.131100 0
M  V30 7 H 72.480100 54.864900 41.222000 0
M  V30 8 H 72.699200 54.838300 42.929000 0
M  V30 9 H 76.418800 58.251600 40.923400 0
M  V30 10 H 76.518700 57.252400 42.391300 0
M  V30 11 H 76.827400 56.542600 40.775300 0
M  V30 12 H 75.116300 54.650100 41.347200 0
M  V30 13 R 73.342800 53.058800 41.809400 0
M  V30 END ATOM
M  V30 BEGIN BOND
M  V30 1 1 2 1
M  V30 2 1 3 2
M  V30 3 1 4 3
M  V30 4 2 5 3
M  V30 5 2 6 3
M  V30 6 1 7 1
M  V30 7 1 8 1
M  V30 8 1 9 4
M  V30 9 1 10 4
M  V30 10 1 11 4
M  V30 11 1 12 2
M  V30 12 1 13 1
M  V30 END BOND
M  V30 END CTAB
M  END
$$$$
R-group 958 (41751-1)
     RDKit          3D

  0  0  0  0  0  0  0  0  0  0999 V3000
M  V30 BEGIN CTAB
M  V30 COUNTS 16 15 0 0 1
M  V30 BEGIN ATOM
M  V30 1 C 73.381800 54.668900 41.872000 0
M  V30 2 C 74.506300 55.488200 41.209400 0
M  V30 3 C 74.845600 56.788600 41.939800 0 CFG=1
M  V30 4 N 73.671300 57.402900 42.520500 0
M  V30 5 C 75.896300 56.544100 43.019400 0
M  V30 6 F 76.072000 57.654900 43.722900 0
M  V30 7 F 75.566100 55.556100 43.853400 0
M  V30 8 H 72.472300 54.951600 41.382000 0
M  V30 9 H 73.273500 54.897300 42.926500 0
M  V30 10 H 75.422300 54.904200 41.149200 0
M  V30 11 H 74.216700 55.715100 40.181800 0
M  V30 12 H 75.262000 57.498000 41.224200 0
M  V30 13 H 73.281800 56.764400 43.201100 0
M  V30 14 H 73.967300 58.217900 43.039400 0
M  V30 15 H 76.835000 56.271200 42.526300 0
M  V30 16 R 73.418600 53.162100 41.704100 0
M  V30 END ATOM
M  V30 BEGIN BOND
M  V30 1 1 2 1
M  V30 2 1 3 2
M  V30 3 1 4 3
M  V30 4 1 5 3
M  V30 5 1 6 5
M  V30 6 1 7 5
M  V30 7 1 8 1
M  V30 8 1 9 1
M  V30 9 1 10 2
M  V30 10 1 11 2
M  V30 11 1 3 12 CFG=3
M  V30 12 1 13 4
M  V30 13 1 14 4
M  V30 14 1 15 5
M  V30 15 1 16 1
M  V30 END BOND
M  V30 END CTAB
M  END
$$$$
R-group 959 (34863-2)
     RDKit          3D

  0  0  0  0  0  0  0  0  0  0999 V3000
M  V30 BEGIN CTAB
M  V30 COUNTS 18 17 0 0 1
M  V30 BEGIN ATOM
M  V30 1 C 76.740400 55.256900 44.764800 0
M  V30 2 C 76.174900 56.097000 43.616600 0
M  V30 3 N 74.899100 55.582100 43.151200 0
M  V30 4 C 74.574700 55.387200 41.873600 0
M  V30 5 O 75.268200 55.751400 40.925400 0
M  V30 6 C 73.244300 54.660200 41.671600 0 CFG=1
M  V30 7 C 72.532200 55.263500 40.441000 0
M  V30 8 H 77.725800 55.633300 45.042900 0
M  V30 9 H 76.077600 55.257700 45.630800 0
M  V30 10 H 76.891800 54.215100 44.505800 0
M  V30 11 H 76.871500 56.081800 42.774600 0
M  V30 12 H 76.071500 57.129000 43.974000 0
M  V30 13 H 72.622100 54.893100 42.540700 0
M  V30 14 H 72.472200 56.348800 40.524700 0
M  V30 15 H 73.067200 55.080700 39.507300 0
M  V30 16 H 71.521000 54.866000 40.332400 0
M  V30 17 H 74.236800 55.280900 43.856200 0
M  V30 18 R 73.358500 53.099200 41.644900 0
M  V30 END ATOM
M  V30 BEGIN BOND
M  V30 1 1 2 1
M  V30 2 1 3 2
M  V30 3 1 4 3
M  V30 4 2 5 4
M  V30 5 1 6 4
M  V30 6 1 7 6
M  V30 7 1 8 1
M  V30 8 1 9 1
M  V30 9 1 10 1
M  V30 10 1 11 2
M  V30 11 1 12 2
M  V30 12 1 6 13 CFG=1
M  V30 13 1 14 7
M  V30 14 1 15 7
M  V30 15 1 16 7
M  V30 16 1 17 3
M  V30 17 1 18 6
M  V30 END BOND
M  V30 END CTAB
M  END
$$$$
R-group 960 (22953-2)
     RDKit          3D

  0  0  0  0  0  0  0  0  0  0999 V3000
M  V30 BEGIN CTAB
M  V30 COUNTS 16 16 0 0 1
M  V30 BEGIN ATOM
M  V30 1 O 73.274800 54.623600 41.744900 0
M  V30 2 C 73.876400 55.332600 40.667500 0 CFG=1
M  V30 3 C 73.388700 56.795300 40.613600 0
M  V30 4 C 73.989900 57.502200 41.813200 0
M  V30 5 S 75.675300 56.856800 41.841700 0
M  V30 6 O 76.493600 57.653700 40.925100 0
M  V30 7 O 76.069700 56.595800 43.227400 0
M  V30 8 C 75.363400 55.323300 40.983600 0
M  V30 9 H 73.624500 54.941800 39.693400 0
M  V30 10 H 73.786600 57.252800 39.706700 0
M  V30 11 H 72.309500 56.892300 40.524100 0
M  V30 12 H 74.067800 58.569400 41.725000 0
M  V30 13 H 73.494900 57.226100 42.742100 0
M  V30 14 H 75.685300 54.534600 41.653700 0
M  V30 15 H 76.016900 55.311600 40.124600 0
M  V30 16 R 73.283500 53.189700 41.743100 0
M  V30 END ATOM
M  V30 BEGIN BOND
M  V30 1 1 2 1
M  V30 2 1 3 2
M  V30 3 1 4 3
M  V30 4 1 5 4
M  V30 5 2 6 5
M  V30 6 2 7 5
M  V30 7 1 8 2
M  V30 8 1 8 5
M  V30 9 1 2 9 CFG=3
M  V30 10 1 10 3
M  V30 11 1 11 3
M  V30 12 1 12 4
M  V30 13 1 13 4
M  V30 14 1 14 8
M  V30 15 1 15 8
M  V30 16 1 16 1
M  V30 END BOND
M  V30 END CTAB
M  END
$$$$
R-group 961 (43411-2)
     RDKit          3D

  0  0  0  0  0  0  0  0  0  0999 V3000
M  V30 BEGIN CTAB
M  V30 COUNTS 17 18 0 0 1
M  V30 BEGIN ATOM
M  V30 1 C 74.055000 55.299200 42.542200 0 CFG=2
M  V30 2 C 73.325500 56.466400 41.864900 0
M  V30 3 C 74.428000 57.508600 41.756800 0 CFG=2
M  V30 4 C 75.489000 57.201900 40.700800 0
M  V30 5 C 76.284800 56.115300 41.400700 0
M  V30 6 C 75.486700 55.854500 42.677200 0 CFG=1
M  V30 7 O 75.146900 57.195000 42.924600 0
M  V30 8 H 73.678600 55.284900 43.562700 0
M  V30 9 H 72.873900 56.250600 40.896400 0
M  V30 10 H 72.571000 56.858700 42.543000 0
M  V30 11 H 74.053300 58.523400 41.729900 0
M  V30 12 H 75.048700 56.891200 39.751800 0
M  V30 13 H 76.146400 58.055500 40.521100 0
M  V30 14 H 77.244000 56.534600 41.725000 0
M  V30 15 H 76.438300 55.258000 40.753800 0
M  V30 16 H 76.069700 55.421800 43.493100 0
M  V30 17 R 73.854100 53.862600 41.977900 0
M  V30 END ATOM
M  V30 BEGIN BOND
M  V30 1 1 2 1
M  V30 2 1 3 2
M  V30 3 1 4 3
M  V30 4 1 5 4
M  V30 5 1 6 1
M  V30 6 1 6 5
M  V30 7 1 7 3
M  V30 8 1 7 6
M  V30 9 1 1 8 CFG=1
M  V30 10 1 9 2
M  V30 11 1 10 2
M  V30 12 1 3 11 CFG=1
M  V30 13 1 12 4
M  V30 14 1 13 4
M  V30 15 1 14 5
M  V30 16 1 15 5
M  V30 17 1 6 16 CFG=1
M  V30 18 1 17 1
M  V30 END BOND
M  V30 END CTAB
M  END
$$$$
R-group 962 (17816-1)
     RDKit          3D

  0  0  0  0  0  0  0  0  0  0999 V3000
M  V30 BEGIN CTAB
M  V30 COUNTS 9 8 0 0 1
M  V30 BEGIN ATOM
M  V30 1 O 73.320200 54.732500 42.124700 0
M  V30 2 C 74.496600 55.394800 42.018800 0
M  V30 3 F 75.174400 55.390200 43.193400 0
M  V30 4 F 75.272700 54.854500 41.065000 0
M  V30 5 C 74.312500 56.828600 41.541100 0
M  V30 6 F 73.692000 57.585600 42.447800 0
M  V30 7 F 75.551700 57.257800 41.325500 0
M  V30 8 F 73.632700 56.858300 40.394100 0
M  V30 9 R 73.287400 53.316600 41.960700 0
M  V30 END ATOM
M  V30 BEGIN BOND
M  V30 1 1 2 1
M  V30 2 1 3 2
M  V30 3 1 4 2
M  V30 4 1 5 2
M  V30 5 1 6 5
M  V30 6 1 7 5
M  V30 7 1 8 5
M  V30 8 1 9 1
M  V30 END BOND
M  V30 END CTAB
M  END
$$$$
R-group 963 (40019-2)
     RDKit          3D

  0  0  0  0  0  0  0  0  0  0999 V3000
M  V30 BEGIN CTAB
M  V30 COUNTS 11 10 0 0 1
M  V30 BEGIN ATOM
M  V30 1 C 73.766400 57.819300 42.512300 0
M  V30 2 C 73.272400 56.397800 42.289400 0
M  V30 3 C 74.348000 55.329500 42.441400 0 CFG=2
M  V30 4 F 75.349600 55.646800 41.624700 0
M  V30 5 H 72.942600 58.530700 42.458100 0
M  V30 6 H 74.263800 57.937600 43.471700 0
M  V30 7 H 74.472200 58.062100 41.724600 0
M  V30 8 H 72.873500 56.357300 41.277200 0
M  V30 9 H 72.473100 56.186900 42.997800 0
M  V30 10 H 74.750900 55.410000 43.451300 0
M  V30 11 R 73.837300 53.883500 42.178700 0
M  V30 END ATOM
M  V30 BEGIN BOND
M  V30 1 1 2 1
M  V30 2 1 3 2
M  V30 3 1 4 3
M  V30 4 1 5 1
M  V30 5 1 6 1
M  V30 6 1 7 1
M  V30 7 1 8 2
M  V30 8 1 9 2
M  V30 9 1 3 10 CFG=1
M  V30 10 1 11 3
M  V30 END BOND
M  V30 END CTAB
M  END
$$$$
R-group 964 (14455-1)
     RDKit          3D

  0  0  0  0  0  0  0  0  0  0999 V3000
M  V30 BEGIN CTAB
M  V30 COUNTS 15 15 0 0 1
M  V30 BEGIN ATOM
M  V30 1 C 74.168100 54.811400 41.723300 0
M  V30 2 C 73.672500 55.721900 42.579900 0
M  V30 3 N 74.380200 56.858700 42.432600 0
M  V30 4 C 74.035400 58.058000 43.121500 0
M  V30 5 C 75.371100 56.577300 41.578600 0
M  V30 6 C 76.471000 57.536000 41.312700 0
M  V30 7 N 75.272400 55.355000 41.075100 0
M  V30 8 H 72.850400 55.657200 43.280100 0
M  V30 9 H 74.871800 58.394100 43.724600 0
M  V30 10 H 73.725400 58.793900 42.376400 0
M  V30 11 H 73.191100 57.888000 43.791300 0
M  V30 12 H 77.193900 57.154600 40.593600 0
M  V30 13 H 76.072500 58.458000 40.924600 0
M  V30 14 H 76.946600 57.758000 42.262600 0
M  V30 15 R 73.723100 53.402300 41.683300 0
M  V30 END ATOM
M  V30 BEGIN BOND
M  V30 1 2 2 1
M  V30 2 1 3 2
M  V30 3 1 4 3
M  V30 4 1 5 3
M  V30 5 1 6 5
M  V30 6 1 7 1
M  V30 7 2 7 5
M  V30 8 1 8 2
M  V30 9 1 9 4
M  V30 10 1 10 4
M  V30 11 1 11 4
M  V30 12 1 12 6
M  V30 13 1 13 6
M  V30 14 1 14 6
M  V30 15 1 15 1
M  V30 END BOND
M  V30 END CTAB
M  END
$$$$
R-group 965 (3523-2)
     RDKit          3D

  0  0  0  0  0  0  0  0  0  0999 V3000
M  V30 BEGIN CTAB
M  V30 COUNTS 14 14 0 0 1
M  V30 BEGIN ATOM
M  V30 1 N 74.468400 54.956000 42.056100 0
M  V30 2 C 75.132800 55.498100 43.246100 0
M  V30 3 C 75.345300 56.961600 42.864600 0
M  V30 4 C 74.154200 57.255500 41.963000 0 CFG=2
M  V30 5 F 73.272200 58.058000 42.524800 0
M  V30 6 C 73.434100 55.937600 41.840700 0
M  V30 7 H 74.473200 55.408900 44.111800 0
M  V30 8 H 76.071200 55.015400 43.505300 0
M  V30 9 H 75.408600 57.628600 43.724800 0
M  V30 10 H 76.271800 57.066000 42.298300 0
M  V30 11 H 74.449500 57.657900 40.995500 0
M  V30 12 H 72.889200 55.852500 40.902000 0
M  V30 13 H 72.752900 55.832600 42.686300 0
M  V30 14 R 73.870000 53.618100 42.143000 0
M  V30 END ATOM
M  V30 BEGIN BOND
M  V30 1 1 2 1
M  V30 2 1 3 2
M  V30 3 1 4 3
M  V30 4 1 5 4
M  V30 5 1 6 1
M  V30 6 1 6 4
M  V30 7 1 7 2
M  V30 8 1 8 2
M  V30 9 1 9 3
M  V30 10 1 10 3
M  V30 11 1 4 11 CFG=3
M  V30 12 1 12 6
M  V30 13 1 13 6
M  V30 14 1 14 1
M  V30 END BOND
M  V30 END CTAB
M  END
$$$$
R-group 966 (6880-1)
     RDKit          3D

  0  0  0  0  0  0  0  0  0  0999 V3000
M  V30 BEGIN CTAB
M  V30 COUNTS 12 12 0 0 1
M  V30 BEGIN ATOM
M  V30 1 C 74.059200 54.600600 41.530900 0
M  V30 2 C 73.672300 55.470500 42.523800 0
M  V30 3 C 73.975100 56.785000 42.313800 0
M  V30 4 N 73.272300 57.669800 43.055200 0
M  V30 5 N 74.759700 57.215600 41.333500 0
M  V30 6 C 75.214800 56.276500 40.524600 0
M  V30 7 N 74.872800 54.992800 40.536000 0
M  V30 8 H 73.010200 55.191000 43.324600 0
M  V30 9 H 72.755900 57.372300 43.871800 0
M  V30 10 H 73.464400 58.655300 42.958700 0
M  V30 11 H 75.860000 56.602900 39.725500 0
M  V30 12 R 73.630700 53.177500 41.664900 0
M  V30 END ATOM
M  V30 BEGIN BOND
M  V30 1 2 2 1
M  V30 2 1 3 2
M  V30 3 1 4 3
M  V30 4 2 5 3
M  V30 5 1 6 5
M  V30 6 1 7 1
M  V30 7 2 7 6
M  V30 8 1 8 2
M  V30 9 1 9 4
M  V30 10 1 10 4
M  V30 11 1 11 6
M  V30 12 1 12 1
M  V30 END BOND
M  V30 END CTAB
M  END
$$$$
R-group 967 (11111-1)
     RDKit          3D

  0  0  0  0  0  0  0  0  0  0999 V3000
M  V30 BEGIN CTAB
M  V30 COUNTS 16 16 0 0 1
M  V30 BEGIN ATOM
M  V30 1 O 73.031000 54.456200 42.000400 0
M  V30 2 C 74.067400 55.347000 42.042400 0
M  V30 3 C 74.870800 55.536400 43.182100 0
M  V30 4 N 75.759900 56.459200 43.005600 0
M  V30 5 N 75.634900 56.846200 41.734600 0
M  V30 6 C 76.666800 57.724400 41.262700 0
M  V30 7 C 74.539400 56.257300 41.129600 0
M  V30 8 C 74.086500 56.620500 39.749900 0
M  V30 9 H 74.793800 55.071600 44.153500 0
M  V30 10 H 77.272300 57.258800 40.486200 0
M  V30 11 H 76.284700 58.647700 40.923200 0
M  V30 12 H 77.249800 58.055100 42.112200 0
M  V30 13 H 73.209500 56.046100 39.449500 0
M  V30 14 H 73.806800 57.670200 39.700300 0
M  V30 15 H 74.872400 56.456100 39.017400 0
M  V30 16 R 73.361400 53.144100 41.584500 0
M  V30 END ATOM
M  V30 BEGIN BOND
M  V30 1 1 2 1
M  V30 2 1 3 2
M  V30 3 2 4 3
M  V30 4 1 5 4
M  V30 5 1 6 5
M  V30 6 2 7 2
M  V30 7 1 7 5
M  V30 8 1 8 7
M  V30 9 1 9 3
M  V30 10 1 10 6
M  V30 11 1 11 6
M  V30 12 1 12 6
M  V30 13 1 13 8
M  V30 14 1 14 8
M  V30 15 1 15 8
M  V30 16 1 16 1
M  V30 END BOND
M  V30 END CTAB
M  END
$$$$
R-group 968 (3123-1)
     RDKit          3D

  0  0  0  0  0  0  0  0  0  0999 V3000
M  V30 BEGIN CTAB
M  V30 COUNTS 12 12 0 0 1
M  V30 BEGIN ATOM
M  V30 1 C 74.205300 54.793500 41.716100 0
M  V30 2 C 73.671900 55.709700 42.539400 0
M  V30 3 N 74.286800 56.880600 42.300200 0
M  V30 4 C 73.845800 58.061800 42.938100 0
M  V30 5 C 75.251200 56.631800 41.407300 0
M  V30 6 N 75.264900 55.367500 41.008100 0
M  V30 7 H 72.861800 55.656900 43.250200 0
M  V30 8 H 74.542000 58.353500 43.723900 0
M  V30 9 H 73.694100 58.837300 42.182500 0
M  V30 10 H 72.873800 57.905000 43.408200 0
M  V30 11 H 75.925200 57.385800 41.028000 0
M  V30 12 R 73.757600 53.386300 41.703500 0
M  V30 END ATOM
M  V30 BEGIN BOND
M  V30 1 2 2 1
M  V30 2 1 3 2
M  V30 3 1 4 3
M  V30 4 1 5 3
M  V30 5 1 6 1
M  V30 6 2 6 5
M  V30 7 1 7 2
M  V30 8 1 8 4
M  V30 9 1 9 4
M  V30 10 1 10 4
M  V30 11 1 11 5
M  V30 12 1 12 1
M  V30 END BOND
M  V30 END CTAB
M  END
$$$$
R-group 969 (43063-1)
     RDKit          3D

  0  0  0  0  0  0  0  0  0  0999 V3000
M  V30 BEGIN CTAB
M  V30 COUNTS 15 15 0 0 1
M  V30 BEGIN ATOM
M  V30 1 N 73.798600 54.842000 41.695100 0
M  V30 2 C 73.201200 55.584800 42.792500 0
M  V30 3 C 73.396300 57.106100 42.638800 0
M  V30 4 F 72.872300 57.721200 41.579900 0
M  V30 5 F 72.872500 57.658000 43.724700 0
M  V30 6 O 74.778400 57.258100 42.522700 0
M  V30 7 C 75.297900 56.715800 41.315700 0
M  V30 8 F 76.491600 57.241600 41.115100 0
M  V30 9 F 74.631400 56.858100 40.167500 0
M  V30 10 C 75.216000 55.221000 41.568100 0
M  V30 11 H 72.158300 55.301900 42.924800 0
M  V30 12 H 73.689700 55.305200 43.722300 0
M  V30 13 H 75.739500 54.982500 42.487900 0
M  V30 14 H 75.700700 54.691400 40.757500 0
M  V30 15 R 73.513100 53.414200 41.741500 0
M  V30 END ATOM
M  V30 BEGIN BOND
M  V30 1 1 2 1
M  V30 2 1 3 2
M  V30 3 1 4 3
M  V30 4 1 5 3
M  V30 5 1 6 3
M  V30 6 1 7 6
M  V30 7 1 8 7
M  V30 8 1 9 7
M  V30 9 1 10 1
M  V30 10 1 10 7
M  V30 11 1 11 2
M  V30 12 1 12 2
M  V30 13 1 13 10
M  V30 14 1 14 10
M  V30 15 1 15 1
M  V30 END BOND
M  V30 END CTAB
M  END
$$$$
R-group 970 (6600-1)
     RDKit          3D

  0  0  0  0  0  0  0  0  0  0999 V3000
M  V30 BEGIN CTAB
M  V30 COUNTS 12 11 0 0 1
M  V30 BEGIN ATOM
M  V30 1 C 76.169400 57.086400 40.954500 0
M  V30 2 N 75.625300 55.758900 41.175300 0
M  V30 3 S 74.136100 55.683500 41.646900 0 CFG=2
M  V30 4 C 73.170400 56.337300 40.201700 0
M  V30 5 O 73.677300 56.387000 42.852500 0
M  V30 6 H 76.239000 57.657200 41.878500 0
M  V30 7 H 77.168500 57.073400 40.524600 0
M  V30 8 H 75.580200 57.657900 40.246400 0
M  V30 9 H 73.711200 56.121600 39.280800 0
M  V30 10 H 72.168900 55.920100 40.124700 0
M  V30 11 H 73.086700 57.418800 40.303600 0
M  V30 12 R 73.674900 53.860200 41.805800 0
M  V30 END ATOM
M  V30 BEGIN BOND
M  V30 1 1 2 1
M  V30 2 2 3 2
M  V30 3 1 4 3
M  V30 4 2 5 3
M  V30 5 1 6 1
M  V30 6 1 7 1
M  V30 7 1 8 1
M  V30 8 1 9 4
M  V30 9 1 10 4
M  V30 10 1 11 4
M  V30 11 1 3 12 CFG=1
M  V30 END BOND
M  V30 END CTAB
M  END
$$$$
R-group 971 (39933-4)
     RDKit          3D

  0  0  0  0  0  0  0  0  0  0999 V3000
M  V30 BEGIN CTAB
M  V30 COUNTS 20 20 0 0 1
M  V30 BEGIN ATOM
M  V30 1 O 73.113800 54.382400 42.123700 0
M  V30 2 C 73.851000 55.444500 41.542700 0 CFG=1
M  V30 3 C 73.225500 55.927100 40.222400 0
M  V30 4 C 73.399200 57.409500 40.203200 0
M  V30 5 C 73.418900 57.866100 41.649800 0
M  V30 6 C 73.839300 56.672100 42.489200 0 CFG=1
M  V30 7 C 72.874800 56.596200 43.698500 0
M  V30 8 O 75.170700 56.858100 42.919000 0
M  V30 9 H 74.872500 55.127400 41.342700 0
M  V30 10 H 73.703900 55.550300 39.318000 0
M  V30 11 H 72.162300 55.671200 40.137800 0
M  V30 12 H 74.311500 57.658000 39.660900 0
M  V30 13 H 72.542700 57.823700 39.724800 0
M  V30 14 H 72.416200 58.209700 41.913400 0
M  V30 15 H 74.066600 58.716800 41.813400 0
M  V30 16 H 71.970900 56.057600 43.450700 0
M  V30 17 H 73.266900 56.059200 44.536800 0
M  V30 18 H 72.620200 57.577400 44.099100 0
M  V30 19 H 75.424300 56.101700 43.428300 0
M  V30 20 R 73.405000 53.068600 41.701800 0
M  V30 END ATOM
M  V30 BEGIN BOND
M  V30 1 1 2 1
M  V30 2 1 3 2
M  V30 3 1 4 3
M  V30 4 1 5 4
M  V30 5 1 6 2
M  V30 6 1 6 5
M  V30 7 1 7 6
M  V30 8 1 6 8 CFG=1
M  V30 9 1 2 9 CFG=3
M  V30 10 1 10 3
M  V30 11 1 11 3
M  V30 12 1 12 4
M  V30 13 1 13 4
M  V30 14 1 14 5
M  V30 15 1 15 5
M  V30 16 1 16 7
M  V30 17 1 17 7
M  V30 18 1 18 7
M  V30 19 1 19 8
M  V30 20 1 20 1
M  V30 END BOND
M  V30 END CTAB
M  END
$$$$
R-group 972 (5444-1)
     RDKit          3D

  0  0  0  0  0  0  0  0  0  0999 V3000
M  V30 BEGIN CTAB
M  V30 COUNTS 21 20 0 0 1
M  V30 BEGIN ATOM
M  V30 1 C 72.913200 57.665600 42.991600 0
M  V30 2 C 73.921900 57.797300 41.857600 0
M  V30 3 C 73.471600 57.189800 40.500200 0 CFG=1
M  V30 4 C 74.380800 57.549400 39.326700 0
M  V30 5 N 73.272300 55.733600 40.524500 0
M  V30 6 C 72.026300 55.323300 39.857300 0
M  V30 7 C 74.121000 54.880300 41.150900 0
M  V30 8 O 75.265200 55.226200 41.436800 0
M  V30 9 H 73.280900 58.058100 43.934100 0
M  V30 10 H 72.072300 58.300400 42.738000 0
M  V30 11 H 72.598000 56.636200 43.162500 0
M  V30 12 H 74.904700 57.460800 42.178900 0
M  V30 13 H 74.016200 58.858000 41.724700 0
M  V30 14 H 72.520100 57.681500 40.298800 0
M  V30 15 H 74.071800 58.517000 38.925100 0
M  V30 16 H 75.413500 57.589300 39.680000 0
M  V30 17 H 74.317900 56.823700 38.516900 0
M  V30 18 H 71.416300 54.690800 40.503200 0
M  V30 19 H 71.374600 56.148100 39.570600 0
M  V30 20 H 72.257200 54.804000 38.926800 0
M  V30 21 R 73.656700 53.466000 41.592400 0
M  V30 END ATOM
M  V30 BEGIN BOND
M  V30 1 1 2 1
M  V30 2 1 3 2
M  V30 3 1 4 3
M  V30 4 1 5 3
M  V30 5 1 6 5
M  V30 6 1 7 5
M  V30 7 2 8 7
M  V30 8 1 9 1
M  V30 9 1 10 1
M  V30 10 1 11 1
M  V30 11 1 12 2
M  V30 12 1 13 2
M  V30 13 1 3 14 CFG=3
M  V30 14 1 15 4
M  V30 15 1 16 4
M  V30 16 1 17 4
M  V30 17 1 18 6
M  V30 18 1 19 6
M  V30 19 1 20 6
M  V30 20 1 21 7
M  V30 END BOND
M  V30 END CTAB
M  END
$$$$
R-group 973 (10842-1)
     RDKit          3D

  0  0  0  0  0  0  0  0  0  0999 V3000
M  V30 BEGIN CTAB
M  V30 COUNTS 16 16 0 0 1
M  V30 BEGIN ATOM
M  V30 1 C 74.667100 55.057000 41.469700 0
M  V30 2 C 74.609600 56.110200 42.556200 0
M  V30 3 C 73.264300 56.792000 42.524800 0
M  V30 4 C 73.101300 58.073100 43.268400 0
M  V30 5 O 72.472300 58.741500 42.124700 0
M  V30 6 C 72.872800 57.635900 41.292400 0
M  V30 7 H 75.707900 54.817600 41.271000 0
M  V30 8 H 74.313100 55.502000 40.539400 0
M  V30 9 H 74.808500 55.676400 43.535800 0
M  V30 10 H 75.401600 56.839200 42.378800 0
M  V30 11 H 72.474900 56.148200 42.924700 0
M  V30 12 H 72.471500 57.997100 44.152400 0
M  V30 13 H 74.087900 58.458000 43.513200 0
M  V30 14 H 73.716400 57.907000 40.664200 0
M  V30 15 H 72.072200 57.257800 40.657800 0
M  V30 16 R 73.874800 53.770300 41.787400 0
M  V30 END ATOM
M  V30 BEGIN BOND
M  V30 1 1 2 1
M  V30 2 1 3 2
M  V30 3 1 4 3
M  V30 4 1 5 4
M  V30 5 1 6 3
M  V30 6 1 6 5
M  V30 7 1 7 1
M  V30 8 1 8 1
M  V30 9 1 9 2
M  V30 10 1 10 2
M  V30 11 1 11 3
M  V30 12 1 12 4
M  V30 13 1 13 4
M  V30 14 1 14 6
M  V30 15 1 15 6
M  V30 16 1 16 1
M  V30 END BOND
M  V30 END CTAB
M  END
$$$$
R-group 974 (6904-1)
     RDKit          3D

  0  0  0  0  0  0  0  0  0  0999 V3000
M  V30 BEGIN CTAB
M  V30 COUNTS 15 15 0 0 1
M  V30 BEGIN ATOM
M  V30 1 C 73.844800 54.634300 41.677000 0
M  V30 2 C 73.355700 55.400300 40.596800 0
M  V30 3 C 73.773800 56.735000 40.576200 0
M  V30 4 C 73.263700 57.705000 39.575400 0
M  V30 5 N 74.622900 57.240900 41.476900 0
M  V30 6 C 75.068700 56.402500 42.383400 0
M  V30 7 N 76.056000 56.857600 43.181600 0
M  V30 8 N 74.720400 55.149800 42.559800 0
M  V30 9 H 72.666400 55.028400 39.857500 0
M  V30 10 H 72.481200 57.256900 38.961900 0
M  V30 11 H 72.872500 58.564200 40.125200 0
M  V30 12 H 74.037300 58.071100 38.927000 0
M  V30 13 H 76.202800 57.855900 43.252400 0
M  V30 14 H 76.290400 56.302800 43.988300 0
M  V30 15 R 73.502300 53.166000 41.856800 0
M  V30 END ATOM
M  V30 BEGIN BOND
M  V30 1 2 2 1
M  V30 2 1 3 2
M  V30 3 1 4 3
M  V30 4 2 5 3
M  V30 5 1 6 5
M  V30 6 1 7 6
M  V30 7 1 8 1
M  V30 8 2 8 6
M  V30 9 1 9 2
M  V30 10 1 10 4
M  V30 11 1 11 4
M  V30 12 1 12 4
M  V30 13 1 13 7
M  V30 14 1 14 7
M  V30 15 1 15 1
M  V30 END BOND
M  V30 END CTAB
M  END
$$$$
R-group 975 (7207-2)
     RDKit          3D

  0  0  0  0  0  0  0  0  0  0999 V3000
M  V30 BEGIN CTAB
M  V30 COUNTS 13 12 0 0 1
M  V30 BEGIN ATOM
M  V30 1 O 73.676600 54.974400 42.130300 0
M  V30 2 C 74.934800 55.601700 41.917300 0
M  V30 3 C 74.656000 57.012900 41.390800 0 CFG=2
M  V30 4 C 73.767000 57.853300 42.323000 0
M  V30 5 O 74.046900 56.857900 40.125900 0
M  V30 6 H 75.468900 55.648900 42.866600 0
M  V30 7 H 75.582500 55.064000 41.228100 0
M  V30 8 H 75.605100 57.530600 41.242300 0
M  V30 9 H 74.254900 58.003000 43.286800 0
M  V30 10 H 73.553100 58.840300 41.905400 0
M  V30 11 H 72.815900 57.363300 42.515800 0
M  V30 12 H 73.278300 56.322200 40.246000 0
M  V30 13 R 73.547600 53.579600 41.877400 0
M  V30 END ATOM
M  V30 BEGIN BOND
M  V30 1 1 2 1
M  V30 2 1 3 2
M  V30 3 1 4 3
M  V30 4 1 5 3
M  V30 5 1 6 2
M  V30 6 1 7 2
M  V30 7 1 3 8 CFG=3
M  V30 8 1 9 4
M  V30 9 1 10 4
M  V30 10 1 11 4
M  V30 11 1 12 5
M  V30 12 1 13 1
M  V30 END BOND
M  V30 END CTAB
M  END
$$$$
R-group 976 (762-1)
     RDKit          3D

  0  0  0  0  0  0  0  0  0  0999 V3000
M  V30 BEGIN CTAB
M  V30 COUNTS 11 11 0 0 1
M  V30 BEGIN ATOM
M  V30 1 C 74.188100 54.797500 41.857200 0
M  V30 2 C 73.672100 55.731400 42.656600 0
M  V30 3 C 74.421800 56.855400 42.389500 0
M  V30 4 C 74.071500 58.124100 43.010800 0
M  V30 5 N 75.404900 56.641700 41.532200 0
M  V30 6 O 75.270800 55.288500 41.187100 0
M  V30 7 H 72.826400 55.644700 43.321400 0
M  V30 8 H 73.147400 58.042500 43.581600 0
M  V30 9 H 74.839000 58.455100 43.723300 0
M  V30 10 H 73.868600 58.856400 42.231600 0
M  V30 11 R 73.763100 53.400900 41.746600 0
M  V30 END ATOM
M  V30 BEGIN BOND
M  V30 1 2 2 1
M  V30 2 1 3 2
M  V30 3 1 4 3
M  V30 4 2 5 3
M  V30 5 1 6 1
M  V30 6 1 6 5
M  V30 7 1 7 2
M  V30 8 1 8 4
M  V30 9 1 9 4
M  V30 10 1 10 4
M  V30 11 1 11 1
M  V30 END BOND
M  V30 END CTAB
M  END
$$$$
R-group 977 (40057-1)
     RDKit          3D

  0  0  0  0  0  0  0  0  0  0999 V3000
M  V30 BEGIN CTAB
M  V30 COUNTS 18 18 0 0 1
M  V30 BEGIN ATOM
M  V30 1 C 73.621900 54.531200 41.999300 0 CFG=1
M  V30 2 C 75.113400 54.964600 42.050200 0
M  V30 3 C 75.223700 56.461000 42.153700 0
M  V30 4 C 74.425000 57.109600 41.041200 0 CFG=1
M  V30 5 F 74.922200 56.857800 39.833100 0
M  V30 6 C 72.962200 56.775100 40.963600 0
M  V30 7 C 72.872600 55.244100 40.856100 0
M  V30 8 H 73.164500 54.874100 42.924700 0
M  V30 9 H 75.655500 54.569300 42.909800 0
M  V30 10 H 75.662900 54.628100 41.174100 0
M  V30 11 H 74.851100 56.791100 43.124800 0
M  V30 12 H 76.271700 56.759700 42.100800 0
M  V30 13 H 74.472200 58.113500 41.325700 0
M  V30 14 H 72.486500 57.255800 41.828200 0
M  V30 15 H 72.507100 57.238000 40.083900 0
M  V30 16 H 73.297200 54.979700 39.890700 0
M  V30 17 H 71.852700 54.858000 40.793000 0
M  V30 18 R 73.420900 53.002900 41.950000 0
M  V30 END ATOM
M  V30 BEGIN BOND
M  V30 1 1 2 1
M  V30 2 1 3 2
M  V30 3 1 4 3
M  V30 4 1 5 4
M  V30 5 1 6 4
M  V30 6 1 7 1
M  V30 7 1 7 6
M  V30 8 1 1 8 CFG=1
M  V30 9 1 9 2
M  V30 10 1 10 2
M  V30 11 1 11 3
M  V30 12 1 12 3
M  V30 13 1 4 13 CFG=1
M  V30 14 1 14 6
M  V30 15 1 15 6
M  V30 16 1 16 7
M  V30 17 1 17 7
M  V30 18 1 18 1
M  V30 END BOND
M  V30 END CTAB
M  END
$$$$
R-group 978 (27310-1)
     RDKit          3D

  0  0  0  0  0  0  0  0  0  0999 V3000
M  V30 BEGIN CTAB
M  V30 COUNTS 21 21 0 0 1
M  V30 BEGIN ATOM
M  V30 1 C 74.080600 55.372600 41.515000 0
M  V30 2 C 75.560600 55.729600 41.345600 0
M  V30 3 C 73.438100 56.111200 40.333600 0
M  V30 4 C 73.571200 55.939700 42.865700 0
M  V30 5 C 73.720300 57.397500 43.136700 0
M  V30 6 C 72.796200 58.388200 42.473400 0
M  V30 7 C 72.624700 58.046800 43.928200 0
M  V30 8 H 75.993600 55.364500 40.406200 0
M  V30 9 H 75.740900 56.799800 41.359200 0
M  V30 10 H 76.175000 55.320000 42.118600 0
M  V30 11 H 73.767200 55.725100 39.381500 0
M  V30 12 H 72.392300 56.027500 40.336300 0
M  V30 13 H 73.634800 57.176700 40.310200 0
M  V30 14 H 74.045600 55.450200 43.713300 0
M  V30 15 H 72.516900 55.732100 42.938400 0
M  V30 16 H 74.727600 57.721700 43.327500 0
M  V30 17 H 72.076300 58.066700 41.736100 0
M  V30 18 H 73.334500 59.233900 42.111300 0
M  V30 19 H 72.872000 58.771200 44.716700 0
M  V30 20 H 71.841300 57.390400 44.268200 0
M  V30 21 R 73.725700 53.833900 41.648400 0
M  V30 END ATOM
M  V30 BEGIN BOND
M  V30 1 1 2 1
M  V30 2 1 3 1
M  V30 3 1 4 1
M  V30 4 1 5 4
M  V30 5 1 6 5
M  V30 6 1 7 5
M  V30 7 1 7 6
M  V30 8 1 8 2
M  V30 9 1 9 2
M  V30 10 1 10 2
M  V30 11 1 11 3
M  V30 12 1 12 3
M  V30 13 1 13 3
M  V30 14 1 14 4
M  V30 15 1 15 4
M  V30 16 1 16 5
M  V30 17 1 17 6
M  V30 18 1 18 6
M  V30 19 1 19 7
M  V30 20 1 20 7
M  V30 21 1 21 1
M  V30 END BOND
M  V30 END CTAB
M  END
$$$$
R-group 979 (5439-1)
     RDKit          3D

  0  0  0  0  0  0  0  0  0  0999 V3000
M  V30 BEGIN CTAB
M  V30 COUNTS 12 11 0 0 1
M  V30 BEGIN ATOM
M  V30 1 C 74.025000 55.324800 41.910000 0 CFG=1
M  V30 2 C 73.558200 56.055600 43.176300 0
M  V30 3 C 75.522300 55.622100 41.679000 0
M  V30 4 O 75.672500 56.858000 41.034600 0
M  V30 5 H 73.464400 55.774700 41.089400 0
M  V30 6 H 74.071200 55.657900 44.052000 0
M  V30 7 H 73.769600 57.123900 43.121300 0
M  V30 8 H 72.485200 55.941900 43.324700 0
M  V30 9 H 76.070900 55.657500 42.620700 0
M  V30 10 H 76.002900 54.880800 41.051800 0
M  V30 11 H 75.243000 56.817500 40.193900 0
M  V30 12 R 73.655000 53.806300 41.923000 0
M  V30 END ATOM
M  V30 BEGIN BOND
M  V30 1 1 2 1
M  V30 2 1 3 1
M  V30 3 1 4 3
M  V30 4 1 1 5 CFG=3
M  V30 5 1 6 2
M  V30 6 1 7 2
M  V30 7 1 8 2
M  V30 8 1 9 3
M  V30 9 1 10 3
M  V30 10 1 11 4
M  V30 11 1 12 1
M  V30 END BOND
M  V30 END CTAB
M  END
$$$$
R-group 980 (10314-1)
     RDKit          3D

  0  0  0  0  0  0  0  0  0  0999 V3000
M  V30 BEGIN CTAB
M  V30 COUNTS 15 14 0 0 1
M  V30 BEGIN ATOM
M  V30 1 C 72.771400 54.324000 41.862100 0
M  V30 2 O 73.619800 55.300700 41.286400 0
M  V30 3 C 73.807900 56.448000 42.083700 0 CFG=2
M  V30 4 C 73.527600 57.662500 41.196100 0
M  V30 5 C 75.248900 56.275800 42.558600 0
M  V30 6 F 75.672100 57.258000 43.324000 0
M  V30 7 F 75.271500 55.184900 43.314800 0
M  V30 8 F 76.071500 56.165300 41.514200 0
M  V30 9 H 71.772100 54.455700 41.446900 0
M  V30 10 H 72.670200 54.413800 42.924700 0
M  V30 11 H 73.135300 56.499500 42.941600 0
M  V30 12 H 73.679000 58.588700 41.746800 0
M  V30 13 H 74.159700 57.655000 40.311000 0
M  V30 14 H 72.487500 57.659100 40.856600 0
M  V30 15 R 73.293500 52.935400 41.525600 0
M  V30 END ATOM
M  V30 BEGIN BOND
M  V30 1 1 2 1
M  V30 2 1 3 2
M  V30 3 1 4 3
M  V30 4 1 5 3
M  V30 5 1 6 5
M  V30 6 1 7 5
M  V30 7 1 8 5
M  V30 8 1 9 1
M  V30 9 1 10 1
M  V30 10 1 3 11 CFG=1
M  V30 11 1 12 4
M  V30 12 1 13 4
M  V30 13 1 14 4
M  V30 14 1 15 1
M  V30 END BOND
M  V30 END CTAB
M  END
$$$$
R-group 981 (10106-3)
     RDKit          3D

  0  0  0  0  0  0  0  0  0  0999 V3000
M  V30 BEGIN CTAB
M  V30 COUNTS 17 17 0 0 1
M  V30 BEGIN ATOM
M  V30 1 C 74.446200 54.943500 41.868500 0 CFG=1
M  V30 2 C 73.943500 56.000500 40.879300 0
M  V30 3 C 74.405500 57.339400 41.428800 0
M  V30 4 C 74.702900 57.105600 42.916800 0 CFG=2
M  V30 5 O 76.072300 57.257800 43.115600 0
M  V30 6 C 74.365500 55.646300 43.216700 0 CFG=2
M  V30 7 O 75.277800 55.032800 44.121400 0
M  V30 8 H 75.505500 54.809600 41.636200 0
M  V30 9 H 74.304100 55.847500 39.863400 0
M  V30 10 H 72.870200 55.989300 40.836200 0
M  V30 11 H 73.645800 58.106500 41.285700 0
M  V30 12 H 75.297500 57.646300 40.876100 0
M  V30 13 H 74.157800 57.783000 43.578800 0
M  V30 14 H 73.346500 55.658400 43.600300 0
M  V30 15 H 76.246500 58.028800 43.653200 0
M  V30 16 H 75.708400 55.734100 44.600000 0
M  V30 17 R 73.748100 53.558300 41.835900 0
M  V30 END ATOM
M  V30 BEGIN BOND
M  V30 1 1 2 1
M  V30 2 1 3 2
M  V30 3 1 4 3
M  V30 4 1 5 4
M  V30 5 1 6 1
M  V30 6 1 6 4
M  V30 7 1 7 6
M  V30 8 1 1 8 CFG=3
M  V30 9 1 9 2
M  V30 10 1 10 2
M  V30 11 1 11 3
M  V30 12 1 12 3
M  V30 13 1 4 13 CFG=1
M  V30 14 1 6 14 CFG=1
M  V30 15 1 15 5
M  V30 16 1 16 7
M  V30 17 1 17 1
M  V30 END BOND
M  V30 END CTAB
M  END
$$$$
R-group 982 (41085-2)
     RDKit          3D

  0  0  0  0  0  0  0  0  0  0999 V3000
M  V30 BEGIN CTAB
M  V30 COUNTS 8 7 0 0 1
M  V30 BEGIN ATOM
M  V30 1 C 74.048100 55.150900 41.436400 0 CFG=2
M  V30 2 F 75.133300 55.141500 40.664700 0
M  V30 3 C 74.337400 56.150500 42.553600 0
M  V30 4 F 73.272300 56.458100 43.297200 0
M  V30 5 F 75.333400 55.730800 43.324300 0
M  V30 6 F 74.710300 57.258000 41.939000 0
M  V30 7 H 73.266200 55.588500 40.815700 0
M  V30 8 R 73.637100 53.700600 41.807200 0
M  V30 END ATOM
M  V30 BEGIN BOND
M  V30 1 1 2 1
M  V30 2 1 3 1
M  V30 3 1 4 3
M  V30 4 1 5 3
M  V30 5 1 6 3
M  V30 6 1 1 7 CFG=3
M  V30 7 1 8 1
M  V30 END BOND
M  V30 END CTAB
M  END
$$$$
R-group 983 (11936-2)
     RDKit          3D

  0  0  0  0  0  0  0  0  0  0999 V3000
M  V30 BEGIN CTAB
M  V30 COUNTS 17 18 0 0 1
M  V30 BEGIN ATOM
M  V30 1 C 73.977800 54.784300 41.837300 0 CFG=1
M  V30 2 C 75.477900 54.984500 41.521300 0
M  V30 3 C 75.517800 56.129500 40.546600 0 CFG=2
M  V30 4 C 74.988200 57.257900 41.326500 0
M  V30 5 C 73.672300 57.135800 41.463700 0
M  V30 6 C 73.332300 55.802200 40.843700 0 CFG=1
M  V30 7 C 74.308200 55.871400 39.655900 0
M  V30 8 H 73.799200 55.135700 42.857200 0
M  V30 9 H 76.071300 55.236000 42.402000 0
M  V30 10 H 75.849700 54.125000 40.998800 0
M  V30 11 H 76.495200 56.334300 40.124800 0
M  V30 12 H 75.629400 58.056100 41.603900 0
M  V30 13 H 72.979500 57.804200 41.955800 0
M  V30 14 H 72.306500 55.651200 40.523600 0
M  V30 15 H 74.095800 56.708900 38.985200 0
M  V30 16 H 74.362900 54.993200 39.033200 0
M  V30 17 R 73.566000 53.300300 41.856400 0
M  V30 END ATOM
M  V30 BEGIN BOND
M  V30 1 1 2 1
M  V30 2 1 3 2
M  V30 3 1 4 3
M  V30 4 2 5 4
M  V30 5 1 6 1
M  V30 6 1 6 5
M  V30 7 1 7 3
M  V30 8 1 7 6
M  V30 9 1 1 8 CFG=1
M  V30 10 1 9 2
M  V30 11 1 10 2
M  V30 12 1 3 11 CFG=3
M  V30 13 1 12 4
M  V30 14 1 13 5
M  V30 15 1 6 14 CFG=3
M  V30 16 1 15 7
M  V30 17 1 16 7
M  V30 18 1 17 1
M  V30 END BOND
M  V30 END CTAB
M  END
$$$$
R-group 984 (16185-2)
     RDKit          3D

  0  0  0  0  0  0  0  0  0  0999 V3000
M  V30 BEGIN CTAB
M  V30 COUNTS 12 11 0 0 1
M  V30 BEGIN ATOM
M  V30 1 O 73.921300 54.916300 41.964700 0
M  V30 2 C 73.603100 55.690600 43.106100 0
M  V30 3 C 74.143500 57.088000 42.872000 0 CFG=2
M  V30 4 C 73.547100 57.777600 41.641000 0
M  V30 5 F 75.471300 56.960800 42.816100 0
M  V30 6 H 72.526900 55.719200 43.281800 0
M  V30 7 H 74.077100 55.293600 43.998700 0
M  V30 8 H 73.920900 57.720100 43.724500 0
M  V30 9 H 72.472300 57.619600 41.574300 0
M  V30 10 H 73.672400 58.853800 41.719400 0
M  V30 11 H 74.000300 57.420100 40.716100 0
M  V30 12 R 73.600800 53.541000 42.059100 0
M  V30 END ATOM
M  V30 BEGIN BOND
M  V30 1 1 2 1
M  V30 2 1 3 2
M  V30 3 1 4 3
M  V30 4 1 5 3
M  V30 5 1 6 2
M  V30 6 1 7 2
M  V30 7 1 3 8 CFG=1
M  V30 8 1 9 4
M  V30 9 1 10 4
M  V30 10 1 11 4
M  V30 11 1 12 1
M  V30 END BOND
M  V30 END CTAB
M  END
$$$$
R-group 985 (6845-1)
     RDKit          3D

  0  0  0  0  0  0  0  0  0  0999 V3000
M  V30 BEGIN CTAB
M  V30 COUNTS 12 11 0 0 1
M  V30 BEGIN ATOM
M  V30 1 C 73.495900 54.828000 41.991800 0 CFG=2
M  V30 2 C 73.143200 55.505600 40.722600 0
M  V30 3 N 72.873600 56.032100 39.724700 0
M  V30 4 C 74.812400 55.372900 42.576700 0
M  V30 5 C 75.085000 56.814300 42.193500 0
M  V30 6 F 76.072200 57.250100 42.953200 0
M  V30 7 F 73.996700 57.558700 42.391000 0
M  V30 8 F 75.483400 56.857800 40.924800 0
M  V30 9 H 72.715600 55.145800 42.683200 0
M  V30 10 H 75.672100 54.800700 42.229100 0
M  V30 11 H 74.784200 55.280600 43.663500 0
M  V30 12 R 73.417700 53.274600 41.901700 0
M  V30 END ATOM
M  V30 BEGIN BOND
M  V30 1 1 2 1
M  V30 2 3 3 2
M  V30 3 1 4 1
M  V30 4 1 5 4
M  V30 5 1 6 5
M  V30 6 1 7 5
M  V30 7 1 8 5
M  V30 8 1 1 9 CFG=1
M  V30 9 1 10 4
M  V30 10 1 11 4
M  V30 11 1 12 1
M  V30 END BOND
M  V30 END CTAB
M  END
$$$$
R-group 986 (12256-1)
     RDKit          3D

  0  0  0  0  0  0  0  0  0  0999 V3000
M  V30 BEGIN CTAB
M  V30 COUNTS 12 12 0 0 1
M  V30 BEGIN ATOM
M  V30 1 C 74.165700 54.637500 41.676300 0
M  V30 2 C 75.272300 55.100500 40.861800 0
M  V30 3 C 75.636000 56.385700 40.925000 0
M  V30 4 N 74.924600 57.257400 41.724700 0
M  V30 5 C 73.925200 56.887200 42.524700 0
M  V30 6 O 73.272200 57.658500 43.190500 0
M  V30 7 C 73.625300 55.500100 42.524700 0
M  V30 8 H 75.868600 54.434000 40.264800 0
M  V30 9 H 76.468700 56.821900 40.394300 0
M  V30 10 H 72.813700 55.208400 43.168800 0
M  V30 11 H 75.167200 58.232600 41.705400 0
M  V30 12 R 73.650700 53.230800 41.735500 0
M  V30 END ATOM
M  V30 BEGIN BOND
M  V30 1 1 2 1
M  V30 2 2 3 2
M  V30 3 1 4 3
M  V30 4 1 5 4
M  V30 5 2 6 5
M  V30 6 2 7 1
M  V30 7 1 7 5
M  V30 8 1 8 2
M  V30 9 1 9 3
M  V30 10 1 10 7
M  V30 11 1 11 4
M  V30 12 1 12 1
M  V30 END BOND
M  V30 END CTAB
M  END
$$$$
R-group 987 (2381-1)
     RDKit          3D

  0  0  0  0  0  0  0  0  0  0999 V3000
M  V30 BEGIN CTAB
M  V30 COUNTS 11 11 0 0 1
M  V30 BEGIN ATOM
M  V30 1 C 74.208500 55.079300 41.735800 0
M  V30 2 C 75.272900 55.554500 40.923600 0
M  V30 3 N 75.450600 56.858000 40.958900 0
M  V30 4 N 74.505100 57.257300 41.813900 0
M  V30 5 C 73.818900 56.220400 42.356200 0
M  V30 6 N 72.895100 56.462800 43.324700 0
M  V30 7 H 75.943900 54.998700 40.291500 0
M  V30 8 H 72.587700 55.687900 43.917300 0
M  V30 9 H 74.392800 58.230900 42.061600 0
M  V30 10 H 72.778800 57.364100 43.761600 0
M  V30 11 R 73.659400 53.686600 41.881100 0
M  V30 END ATOM
M  V30 BEGIN BOND
M  V30 1 1 2 1
M  V30 2 2 3 2
M  V30 3 1 4 3
M  V30 4 2 5 1
M  V30 5 1 5 4
M  V30 6 1 6 5
M  V30 7 1 7 2
M  V30 8 1 8 6
M  V30 9 1 9 4
M  V30 10 1 10 6
M  V30 11 1 11 1
M  V30 END BOND
M  V30 END CTAB
M  END
$$$$
R-group 988 (22373-2)
     RDKit          3D

  0  0  0  0  0  0  0  0  0  0999 V3000
M  V30 BEGIN CTAB
M  V30 COUNTS 15 15 0 0 1
M  V30 BEGIN ATOM
M  V30 1 C 74.184700 55.036800 41.756400 0 CFG=2
M  V30 2 C 73.403800 56.095800 42.495900 0
M  V30 3 C 73.486100 56.148600 40.986300 0
M  V30 4 C 74.321400 57.228000 40.339200 0
M  V30 5 C 72.264600 55.905100 40.119200 0
M  V30 6 H 75.269900 55.138700 41.778600 0
M  V30 7 H 72.472400 55.779900 42.953700 0
M  V30 8 H 73.971700 56.827000 43.068000 0
M  V30 9 H 73.671600 58.057700 40.058500 0
M  V30 10 H 75.094600 57.582400 41.023900 0
M  V30 11 H 74.801200 56.845800 39.436100 0
M  V30 12 H 71.676000 56.817300 40.030000 0
M  V30 13 H 72.571300 55.616800 39.113800 0
M  V30 14 H 71.619700 55.122700 40.521900 0
M  V30 15 R 73.722100 53.579700 41.822800 0
M  V30 END ATOM
M  V30 BEGIN BOND
M  V30 1 1 2 1
M  V30 2 1 3 1
M  V30 3 1 3 2
M  V30 4 1 4 3
M  V30 5 1 5 3
M  V30 6 1 1 6 CFG=1
M  V30 7 1 7 2
M  V30 8 1 8 2
M  V30 9 1 9 4
M  V30 10 1 10 4
M  V30 11 1 11 4
M  V30 12 1 12 5
M  V30 13 1 13 5
M  V30 14 1 14 5
M  V30 15 1 15 1
M  V30 END BOND
M  V30 END CTAB
M  END
$$$$
R-group 989 (5662-1)
     RDKit          3D

  0  0  0  0  0  0  0  0  0  0999 V3000
M  V30 BEGIN CTAB
M  V30 COUNTS 17 16 0 0 1
M  V30 BEGIN ATOM
M  V30 1 C 74.309300 55.367400 42.685600 0 CFG=2
M  V30 2 C 73.221400 56.432500 42.907500 0
M  V30 3 C 75.508500 55.880600 41.840000 0
M  V30 4 C 76.444300 56.680800 42.716900 0
M  V30 5 C 75.082600 56.721800 40.646900 0
M  V30 6 H 74.721100 55.241900 43.689800 0
M  V30 7 H 72.842300 56.872600 41.970700 0
M  V30 8 H 72.359800 56.027100 43.425800 0
M  V30 9 H 73.616800 57.245900 43.506100 0
M  V30 10 H 76.072200 55.018500 41.487300 0
M  V30 11 H 75.927300 57.415000 43.314000 0
M  V30 12 H 77.221300 57.190000 42.124000 0
M  V30 13 H 76.857600 56.008100 43.447500 0
M  V30 14 H 74.642600 57.658200 40.971400 0
M  V30 15 H 75.935100 56.933700 39.999700 0
M  V30 16 H 74.354600 56.149800 40.090300 0
M  V30 17 R 73.788600 53.947100 42.304200 0
M  V30 END ATOM
M  V30 BEGIN BOND
M  V30 1 1 2 1
M  V30 2 1 3 1
M  V30 3 1 4 3
M  V30 4 1 5 3
M  V30 5 1 1 6 CFG=1
M  V30 6 1 7 2
M  V30 7 1 8 2
M  V30 8 1 9 2
M  V30 9 1 10 3
M  V30 10 1 11 4
M  V30 11 1 12 4
M  V30 12 1 13 4
M  V30 13 1 14 5
M  V30 14 1 15 5
M  V30 15 1 16 5
M  V30 16 1 17 1
M  V30 END BOND
M  V30 END CTAB
M  END
$$$$
R-group 990 (6730-1)
     RDKit          3D

  0  0  0  0  0  0  0  0  0  0999 V3000
M  V30 BEGIN CTAB
M  V30 COUNTS 15 15 0 0 1
M  V30 BEGIN ATOM
M  V30 1 C 72.778500 54.275700 42.142400 0
M  V30 2 N 73.691600 55.419800 42.033300 0
M  V30 3 C 73.481900 56.378600 40.955600 0
M  V30 4 C 74.809800 57.101400 40.914400 0
M  V30 5 N 75.591500 56.458400 41.928800 0
M  V30 6 C 74.863900 55.632800 42.668500 0
M  V30 7 O 75.270200 55.132900 43.713900 0
M  V30 8 H 71.892800 54.458100 41.535800 0
M  V30 9 H 72.360400 54.106800 43.121000 0
M  V30 10 H 73.232000 55.920900 40.000400 0
M  V30 11 H 72.697300 57.098100 41.194900 0
M  V30 12 H 74.619900 58.067000 41.325000 0
M  V30 13 H 75.290100 57.164600 39.936900 0
M  V30 14 H 76.514900 56.768300 42.190600 0
M  V30 15 R 73.378000 52.990200 41.582100 0
M  V30 END ATOM
M  V30 BEGIN BOND
M  V30 1 1 2 1
M  V30 2 1 3 2
M  V30 3 1 4 3
M  V30 4 1 5 4
M  V30 5 1 6 2
M  V30 6 1 6 5
M  V30 7 2 7 6
M  V30 8 1 8 1
M  V30 9 1 9 1
M  V30 10 1 10 3
M  V30 11 1 11 3
M  V30 12 1 12 4
M  V30 13 1 13 4
M  V30 14 1 14 5
M  V30 15 1 15 1
M  V30 END BOND
M  V30 END CTAB
M  END
$$$$
R-group 991 (10202-1)
     RDKit          3D

  0  0  0  0  0  0  0  0  0  0999 V3000
M  V30 BEGIN CTAB
M  V30 COUNTS 14 13 0 0 1
M  V30 BEGIN ATOM
M  V30 1 C 73.846500 54.954400 41.741300 0
M  V30 2 C 73.536800 55.685500 43.036300 0
M  V30 3 C 73.977400 57.132300 42.953800 0 CFG=1
M  V30 4 C 75.489800 57.231700 43.132200 0
M  V30 5 F 73.585300 57.658400 41.794500 0
M  V30 6 H 74.896200 55.102400 41.482700 0
M  V30 7 H 73.279100 55.435200 40.949100 0
M  V30 8 H 72.472600 55.655700 43.269900 0
M  V30 9 H 74.072200 55.225600 43.868500 0
M  V30 10 H 73.467300 57.707200 43.723800 0
M  V30 11 H 75.899400 56.362200 43.649400 0
M  V30 12 H 76.024100 57.365200 42.191500 0
M  V30 13 H 75.672500 58.056400 43.787200 0
M  V30 14 R 73.526600 53.457400 41.764400 0
M  V30 END ATOM
M  V30 BEGIN BOND
M  V30 1 1 2 1
M  V30 2 1 3 2
M  V30 3 1 4 3
M  V30 4 1 5 3
M  V30 5 1 6 1
M  V30 6 1 7 1
M  V30 7 1 8 2
M  V30 8 1 9 2
M  V30 9 1 3 10 CFG=1
M  V30 10 1 11 4
M  V30 11 1 12 4
M  V30 12 1 13 4
M  V30 13 1 14 1
M  V30 END BOND
M  V30 END CTAB
M  END
$$$$
R-group 992 (17698-1)
     RDKit          3D

  0  0  0  0  0  0  0  0  0  0999 V3000
M  V30 BEGIN CTAB
M  V30 COUNTS 16 15 0 0 1
M  V30 BEGIN ATOM
M  V30 1 C 72.880000 57.762300 40.483200 0
M  V30 2 C 73.642900 57.704300 41.811500 0
M  V30 3 C 74.971800 56.922500 41.707100 0 CFG=1
M  V30 4 O 75.671900 56.857500 42.924700 0
M  V30 5 C 74.777300 55.480200 41.267500 0
M  V30 6 O 73.782400 54.887200 42.087800 0
M  V30 7 H 72.070300 58.487100 40.527300 0
M  V30 8 H 73.533300 58.058400 39.662700 0
M  V30 9 H 72.451400 56.795000 40.223000 0
M  V30 10 H 73.004200 57.271500 42.582800 0
M  V30 11 H 73.829800 58.726800 42.125000 0
M  V30 12 H 75.625900 57.420200 40.990100 0
M  V30 13 H 75.716900 54.932300 41.306700 0
M  V30 14 H 74.442300 55.495500 40.231800 0
M  V30 15 H 76.468700 56.370400 42.785500 0
M  V30 16 R 73.583900 53.490700 41.939900 0
M  V30 END ATOM
M  V30 BEGIN BOND
M  V30 1 1 2 1
M  V30 2 1 3 2
M  V30 3 1 4 3
M  V30 4 1 5 3
M  V30 5 1 6 5
M  V30 6 1 7 1
M  V30 7 1 8 1
M  V30 8 1 9 1
M  V30 9 1 10 2
M  V30 10 1 11 2
M  V30 11 1 3 12 CFG=3
M  V30 12 1 13 5
M  V30 13 1 14 5
M  V30 14 1 15 4
M  V30 15 1 16 6
M  V30 END BOND
M  V30 END CTAB
M  END
$$$$
R-group 993 (862-1)
     RDKit          3D

  0  0  0  0  0  0  0  0  0  0999 V3000
M  V30 BEGIN CTAB
M  V30 COUNTS 12 12 0 0 1
M  V30 BEGIN ATOM
M  V30 1 C 73.325700 54.620300 42.516100 0
M  V30 2 C 73.738100 55.518000 41.401000 0
M  V30 3 C 73.273300 55.796900 40.135000 0
M  V30 4 C 74.294000 56.575600 39.553500 0
M  V30 5 C 75.224800 56.815400 40.524900 0
M  V30 6 O 74.904700 56.165200 41.654600 0
M  V30 7 H 72.316000 54.857500 42.856800 0
M  V30 8 H 73.959500 54.865800 43.364600 0
M  V30 9 H 72.378700 55.418300 39.664800 0
M  V30 10 H 74.344100 56.871700 38.523000 0
M  V30 11 H 76.165500 57.346200 40.547000 0
M  V30 12 R 73.432900 53.113000 42.192900 0
M  V30 END ATOM
M  V30 BEGIN BOND
M  V30 1 1 2 1
M  V30 2 2 3 2
M  V30 3 1 4 3
M  V30 4 2 5 4
M  V30 5 1 6 2
M  V30 6 1 6 5
M  V30 7 1 7 1
M  V30 8 1 8 1
M  V30 9 1 9 3
M  V30 10 1 10 4
M  V30 11 1 11 5
M  V30 12 1 12 1
M  V30 END BOND
M  V30 END CTAB
M  END
$$$$
R-group 994 (4038-4)
     RDKit          3D

  0  0  0  0  0  0  0  0  0  0999 V3000
M  V30 BEGIN CTAB
M  V30 COUNTS 15 15 0 0 1
M  V30 BEGIN ATOM
M  V30 1 C 74.533200 55.166500 41.348200 0 CFG=2
M  V30 2 N 74.523300 55.973700 42.532800 0
M  V30 3 C 73.714700 57.013800 42.414200 0
M  V30 4 O 73.269900 57.658000 43.324700 0
M  V30 5 N 73.475100 57.255000 41.140400 0
M  V30 6 C 73.879900 56.145900 40.326500 0 CFG=1
M  V30 7 C 74.855900 56.706200 39.304400 0
M  V30 8 H 75.573800 54.980300 41.076500 0
M  V30 9 H 72.989700 55.761600 39.832200 0
M  V30 10 H 74.869300 56.060700 38.432100 0
M  V30 11 H 74.507500 57.667200 38.923800 0
M  V30 12 H 75.852300 56.845000 39.727400 0
M  V30 13 H 74.825900 55.624400 43.428800 0
M  V30 14 H 72.880100 58.002200 40.812600 0
M  V30 15 R 73.820400 53.811600 41.671800 0
M  V30 END ATOM
M  V30 BEGIN BOND
M  V30 1 1 2 1
M  V30 2 1 3 2
M  V30 3 2 4 3
M  V30 4 1 5 3
M  V30 5 1 6 1
M  V30 6 1 6 5
M  V30 7 1 7 6
M  V30 8 1 1 8 CFG=3
M  V30 9 1 6 9 CFG=3
M  V30 10 1 10 7
M  V30 11 1 11 7
M  V30 12 1 12 7
M  V30 13 1 13 2
M  V30 14 1 14 5
M  V30 15 1 15 1
M  V30 END BOND
M  V30 END CTAB
M  END
$$$$
R-group 995 (10757-1)
     RDKit          3D

  0  0  0  0  0  0  0  0  0  0999 V3000
M  V30 BEGIN CTAB
M  V30 COUNTS 15 14 0 0 1
M  V30 BEGIN ATOM
M  V30 1 C 73.352200 55.077000 42.265300 0
M  V30 2 C 74.439300 56.061100 42.810800 0
M  V30 3 C 73.677300 57.303300 43.318700 0
M  V30 4 C 75.352800 55.550400 43.944500 0
M  V30 5 C 75.348100 56.502500 41.749300 0
M  V30 6 N 76.069900 56.857700 40.924700 0
M  V30 7 H 72.519700 54.947200 42.936600 0
M  V30 8 H 72.873600 55.638600 41.464100 0
M  V30 9 H 72.973400 57.052000 44.116900 0
M  V30 10 H 74.365700 58.058300 43.693800 0
M  V30 11 H 73.105000 57.771200 42.516800 0
M  V30 12 H 74.779600 55.253500 44.821800 0
M  V30 13 H 75.977500 54.715200 43.661100 0
M  V30 14 H 76.070600 56.319600 44.242600 0
M  V30 15 R 73.656900 53.697900 41.632900 0
M  V30 END ATOM
M  V30 BEGIN BOND
M  V30 1 1 2 1
M  V30 2 1 3 2
M  V30 3 1 4 2
M  V30 4 1 5 2
M  V30 5 3 6 5
M  V30 6 1 7 1
M  V30 7 1 8 1
M  V30 8 1 9 3
M  V30 9 1 10 3
M  V30 10 1 11 3
M  V30 11 1 12 4
M  V30 12 1 13 4
M  V30 13 1 14 4
M  V30 14 1 15 1
M  V30 END BOND
M  V30 END CTAB
M  END
$$$$
R-group 996 (5803-2)
     RDKit          3D

  0  0  0  0  0  0  0  0  0  0999 V3000
M  V30 BEGIN CTAB
M  V30 COUNTS 19 19 0 0 1
M  V30 BEGIN ATOM
M  V30 1 C 73.449500 54.703800 42.095500 0
M  V30 2 C 74.837900 55.349700 42.293700 0
M  V30 3 C 74.796700 56.830100 41.949600 0 CFG=1
M  V30 4 C 74.578800 57.102500 40.451400 0
M  V30 5 C 73.266000 57.872400 40.402500 0
M  V30 6 C 73.060400 58.342700 41.839200 0
M  V30 7 O 73.672200 57.358500 42.637100 0
M  V30 8 H 72.942400 55.161500 41.249800 0
M  V30 9 H 72.803100 54.964800 42.924800 0
M  V30 10 H 75.147800 55.231400 43.332000 0
M  V30 11 H 75.606700 54.872700 41.688400 0
M  V30 12 H 75.709900 57.317900 42.291800 0
M  V30 13 H 75.422300 57.657900 40.040400 0
M  V30 14 H 74.508400 56.190300 39.859900 0
M  V30 15 H 73.272200 58.696800 39.688700 0
M  V30 16 H 72.456800 57.199000 40.120700 0
M  V30 17 H 73.586800 59.258100 42.051700 0
M  V30 18 H 72.015200 58.491100 42.103800 0
M  V30 19 R 73.436100 53.187400 41.897000 0
M  V30 END ATOM
M  V30 BEGIN BOND
M  V30 1 1 2 1
M  V30 2 1 3 2
M  V30 3 1 4 3
M  V30 4 1 5 4
M  V30 5 1 6 5
M  V30 6 1 7 3
M  V30 7 1 7 6
M  V30 8 1 8 1
M  V30 9 1 9 1
M  V30 10 1 10 2
M  V30 11 1 11 2
M  V30 12 1 3 12 CFG=1
M  V30 13 1 13 4
M  V30 14 1 14 4
M  V30 15 1 15 5
M  V30 16 1 16 5
M  V30 17 1 17 6
M  V30 18 1 18 6
M  V30 19 1 19 1
M  V30 END BOND
M  V30 END CTAB
M  END
$$$$
R-group 997 (2069-1)
     RDKit          3D

  0  0  0  0  0  0  0  0  0  0999 V3000
M  V30 BEGIN CTAB
M  V30 COUNTS 8 8 0 0 1
M  V30 BEGIN ATOM
M  V30 1 C 74.082700 55.014600 41.950800 0
M  V30 2 C 73.672300 56.030900 41.052000 0
M  V30 3 N 74.118400 57.187700 41.452200 0
M  V30 4 N 74.874400 56.857900 42.523400 0
M  V30 5 N 74.872100 55.550100 42.852100 0
M  V30 6 H 73.024100 55.965900 40.191100 0
M  V30 7 H 75.386800 57.546800 43.057800 0
M  V30 8 R 73.699200 53.556000 41.931300 0
M  V30 END ATOM
M  V30 BEGIN BOND
M  V30 1 1 2 1
M  V30 2 2 3 2
M  V30 3 1 4 3
M  V30 4 2 5 1
M  V30 5 1 5 4
M  V30 6 1 6 2
M  V30 7 1 7 4
M  V30 8 1 8 1
M  V30 END BOND
M  V30 END CTAB
M  END
$$$$
R-group 998 (18038-1)
     RDKit          3D

  0  0  0  0  0  0  0  0  0  0999 V3000
M  V30 BEGIN CTAB
M  V30 COUNTS 11 10 0 0 1
M  V30 BEGIN ATOM
M  V30 1 N 73.535700 54.936500 42.377300 0
M  V30 2 S 75.034600 55.761700 42.469400 0
M  V30 3 O 75.670200 55.340000 43.724700 0
M  V30 4 O 75.672200 55.658000 41.156600 0
M  V30 5 C 74.605500 57.482300 42.667000 0
M  V30 6 O 73.272300 57.658000 42.924700 0
M  V30 7 H 75.220900 57.901400 43.465100 0
M  V30 8 H 74.836400 57.973200 41.724400 0
M  V30 9 H 73.104200 54.963100 43.309100 0
M  V30 10 H 72.824800 56.877800 42.626000 0
M  V30 11 R 73.480400 53.533500 41.946900 0
M  V30 END ATOM
M  V30 BEGIN BOND
M  V30 1 1 2 1
M  V30 2 2 3 2
M  V30 3 2 4 2
M  V30 4 1 5 2
M  V30 5 1 6 5
M  V30 6 1 7 5
M  V30 7 1 8 5
M  V30 8 1 9 1
M  V30 9 1 10 6
M  V30 10 1 11 1
M  V30 END BOND
M  V30 END CTAB
M  END
$$$$
R-group 999 (19266-1)
     RDKit          3D

  0  0  0  0  0  0  0  0  0  0999 V3000
M  V30 BEGIN CTAB
M  V30 COUNTS 12 11 0 0 1
M  V30 BEGIN ATOM
M  V30 1 O 73.912400 55.104500 41.876000 0
M  V30 2 C 73.525100 55.806300 43.052000 0
M  V30 3 C 73.708900 57.316100 42.868300 0
M  V30 4 C 73.391900 57.780100 41.441200 0
M  V30 5 F 72.874300 57.940600 43.701900 0
M  V30 6 F 74.955400 57.657900 43.187600 0
M  V30 7 H 72.470700 55.645000 43.272400 0
M  V30 8 H 74.086100 55.453700 43.914700 0
M  V30 9 H 73.272000 58.858000 41.402900 0
M  V30 10 H 74.183900 57.494900 40.749400 0
M  V30 11 H 72.472300 57.340400 41.067600 0
M  V30 12 R 73.524500 53.735200 41.813600 0
M  V30 END ATOM
M  V30 BEGIN BOND
M  V30 1 1 2 1
M  V30 2 1 3 2
M  V30 3 1 4 3
M  V30 4 1 5 3
M  V30 5 1 6 3
M  V30 6 1 7 2
M  V30 7 1 8 2
M  V30 8 1 9 4
M  V30 9 1 10 4
M  V30 10 1 11 4
M  V30 11 1 12 1
M  V30 END BOND
M  V30 END CTAB
M  END
$$$$
R-group 1000 (17157-4)
     RDKit          3D

  0  0  0  0  0  0  0  0  0  0999 V3000
M  V30 BEGIN CTAB
M  V30 COUNTS 16 16 0 0 1
M  V30 BEGIN ATOM
M  V30 1 C 74.587700 55.064700 42.612600 0
M  V30 2 C 73.837800 56.258200 42.091200 0 CFG=1
M  V30 3 C 74.578000 57.539200 41.826900 0
M  V30 4 C 74.025700 56.744600 40.673600 0 CFG=2
M  V30 5 C 72.872400 57.289500 39.881000 0
M  V30 6 O 72.134700 56.227500 39.324800 0
M  V30 7 H 74.723600 55.223100 43.683200 0
M  V30 8 H 75.590500 55.070600 42.182700 0
M  V30 9 H 72.872300 56.395900 42.561400 0
M  V30 10 H 74.070000 58.458000 42.107900 0
M  V30 11 H 75.659400 57.539000 41.947700 0
M  V30 12 H 74.764400 56.224400 40.067800 0
M  V30 13 H 72.234100 57.898200 40.524500 0
M  V30 14 H 73.272300 57.924500 39.090000 0
M  V30 15 H 71.825300 55.677600 40.028200 0
M  V30 16 R 73.912700 53.693900 42.363400 0
M  V30 END ATOM
M  V30 BEGIN BOND
M  V30 1 1 2 1
M  V30 2 1 3 2
M  V30 3 1 4 2
M  V30 4 1 4 3
M  V30 5 1 5 4
M  V30 6 1 6 5
M  V30 7 1 7 1
M  V30 8 1 8 1
M  V30 9 1 2 9 CFG=1
M  V30 10 1 10 3
M  V30 11 1 11 3
M  V30 12 1 4 12 CFG=3
M  V30 13 1 13 5
M  V30 14 1 14 5
M  V30 15 1 15 6
M  V30 16 1 16 1
M  V30 END BOND
M  V30 END CTAB
M  END
$$$$
R-group 1001 (8048-1)
     RDKit          3D

  0  0  0  0  0  0  0  0  0  0999 V3000
M  V30 BEGIN CTAB
M  V30 COUNTS 15 15 0 0 1
M  V30 BEGIN ATOM
M  V30 1 C 74.706300 55.097700 41.977700 0 CFG=2
M  V30 2 C 74.251900 56.232800 42.905600 0
M  V30 3 N 73.672200 57.192700 41.982700 0
M  V30 4 C 72.936200 58.363800 42.446000 0
M  V30 5 C 73.777400 56.776900 40.717900 0
M  V30 6 O 73.272300 57.258200 39.724700 0
M  V30 7 N 74.549400 55.713000 40.690100 0
M  V30 8 H 75.772200 54.932500 42.107500 0
M  V30 9 H 73.550500 55.925600 43.680500 0
M  V30 10 H 75.122600 56.696500 43.368500 0
M  V30 11 H 73.451300 59.257900 42.124300 0
M  V30 12 H 71.935700 58.458000 42.029100 0
M  V30 13 H 72.872200 58.374000 43.533600 0
M  V30 14 H 74.753400 55.220700 39.835200 0
M  V30 15 R 73.914400 53.752800 42.073400 0
M  V30 END ATOM
M  V30 BEGIN BOND
M  V30 1 1 2 1
M  V30 2 1 3 2
M  V30 3 1 4 3
M  V30 4 1 5 3
M  V30 5 2 6 5
M  V30 6 1 7 1
M  V30 7 1 7 5
M  V30 8 1 1 8 CFG=1
M  V30 9 1 9 2
M  V30 10 1 10 2
M  V30 11 1 11 4
M  V30 12 1 12 4
M  V30 13 1 13 4
M  V30 14 1 14 7
M  V30 15 1 15 1
M  V30 END BOND
M  V30 END CTAB
M  END
$$$$
R-group 1002 (79-1)
     RDKit          3D

  0  0  0  0  0  0  0  0  0  0999 V3000
M  V30 BEGIN CTAB
M  V30 COUNTS 5 4 0 0 1
M  V30 BEGIN ATOM
M  V30 1 C 74.077200 55.307200 42.186600 0
M  V30 2 F 75.331000 55.563700 41.811500 0
M  V30 3 F 73.272600 56.220800 41.649500 0
M  V30 4 H 74.034800 55.464200 43.266700 0
M  V30 5 R 73.642700 53.869300 41.811100 0
M  V30 END ATOM
M  V30 BEGIN BOND
M  V30 1 1 2 1
M  V30 2 1 3 1
M  V30 3 1 4 1
M  V30 4 1 5 1
M  V30 END BOND
M  V30 END CTAB
M  END
$$$$
R-group 1003 (630-1)
     RDKit          3D

  0  0  0  0  0  0  0  0  0  0999 V3000
M  V30 BEGIN CTAB
M  V30 COUNTS 5 4 0 0 1
M  V30 BEGIN ATOM
M  V30 1 C 73.869600 55.283400 42.253600 0
M  V30 2 F 75.137000 55.625600 42.019400 0
M  V30 3 H 73.271700 56.004800 41.702400 0
M  V30 4 H 73.672700 55.436000 43.317100 0
M  V30 5 R 73.568600 53.829000 41.821700 0
M  V30 END ATOM
M  V30 BEGIN BOND
M  V30 1 1 2 1
M  V30 2 1 3 1
M  V30 3 1 4 1
M  V30 4 1 5 1
M  V30 END BOND
M  V30 END CTAB
M  END
$$$$
R-group 1004 (459-1)
     RDKit          3D

  0  0  0  0  0  0  0  0  0  0999 V3000
M  V30 BEGIN CTAB
M  V30 COUNTS 12 11 0 0 1
M  V30 BEGIN ATOM
M  V30 1 C 73.133400 57.575900 40.188400 0
M  V30 2 O 74.021600 56.636700 40.754200 0
M  V30 3 C 73.909600 56.552700 42.164500 0
M  V30 4 C 74.640100 55.300300 42.646100 0
M  V30 5 H 73.340100 57.677600 39.124600 0
M  V30 6 H 72.094700 57.259500 40.298400 0
M  V30 7 H 73.258500 58.545100 40.663000 0
M  V30 8 H 72.878600 56.525400 42.506200 0
M  V30 9 H 74.365300 57.442100 42.602300 0
M  V30 10 H 74.754800 55.399100 43.725000 0
M  V30 11 H 75.654000 55.307900 42.245700 0
M  V30 12 R 73.951000 53.937500 42.347800 0
M  V30 END ATOM
M  V30 BEGIN BOND
M  V30 1 1 2 1
M  V30 2 1 3 2
M  V30 3 1 4 3
M  V30 4 1 5 1
M  V30 5 1 6 1
M  V30 6 1 7 1
M  V30 7 1 8 3
M  V30 8 1 9 3
M  V30 9 1 10 4
M  V30 10 1 11 4
M  V30 11 1 12 4
M  V30 END BOND
M  V30 END CTAB
M  END
$$$$
R-group 1005 (71-1)
     RDKit          3D

  0  0  0  0  0  0  0  0  0  0999 V3000
M  V30 BEGIN CTAB
M  V30 COUNTS 15 14 0 0 1
M  V30 BEGIN ATOM
M  V30 1 C 73.581400 57.438800 40.376700 0
M  V30 2 C 73.162200 58.074300 41.713700 0
M  V30 3 C 73.795800 57.376600 42.922000 0
M  V30 4 C 73.538100 55.861400 43.025700 0
M  V30 5 O 73.912400 55.173800 41.833000 0
M  V30 6 H 73.253100 58.040200 39.501900 0
M  V30 7 H 74.674500 57.299600 40.329400 0
M  V30 8 H 73.142700 56.438400 40.346400 0
M  V30 9 H 72.072800 58.058000 41.780100 0
M  V30 10 H 73.432100 59.136100 41.740900 0
M  V30 11 H 73.390700 57.876100 43.795200 0
M  V30 12 H 74.870500 57.552200 42.923700 0
M  V30 13 H 72.465500 55.720700 43.229600 0
M  V30 14 H 74.085700 55.486500 43.904900 0
M  V30 15 R 73.497700 53.791800 41.859700 0
M  V30 END ATOM
M  V30 BEGIN BOND
M  V30 1 1 2 1
M  V30 2 1 3 2
M  V30 3 1 4 3
M  V30 4 1 5 4
M  V30 5 1 6 1
M  V30 6 1 7 1
M  V30 7 1 8 1
M  V30 8 1 9 2
M  V30 9 1 10 2
M  V30 10 1 11 3
M  V30 11 1 12 3
M  V30 12 1 13 4
M  V30 13 1 14 4
M  V30 14 1 15 5
M  V30 END BOND
M  V30 END CTAB
M  END
$$$$
R-group 1006 (43007-1)
     RDKit          3D

  0  0  0  0  0  0  0  0  0  0999 V3000
M  V30 BEGIN CTAB
M  V30 COUNTS 12 11 0 0 1
M  V30 BEGIN ATOM
M  V30 1 C 73.101400 54.641900 42.023800 0
M  V30 2 N 74.263700 55.505600 42.170700 0
M  V30 3 C 74.733800 56.342800 41.239600 0
M  V30 4 O 74.202000 56.519300 40.143200 0
M  V30 5 C 76.015700 57.065400 41.601900 0
M  V30 6 F 76.072100 57.202600 42.925000 0
M  V30 7 H 72.474200 55.001200 41.216900 0
M  V30 8 H 72.500200 54.674100 42.923700 0
M  V30 9 H 76.871700 56.475600 41.289200 0
M  V30 10 H 74.755900 55.466800 43.051000 0
M  V30 11 H 76.075700 58.051400 41.135000 0
M  V30 12 R 73.468600 53.205400 41.649000 0
M  V30 END ATOM
M  V30 BEGIN BOND
M  V30 1 1 2 1
M  V30 2 1 3 2
M  V30 3 2 4 3
M  V30 4 1 5 3
M  V30 5 1 6 5
M  V30 6 1 7 1
M  V30 7 1 8 1
M  V30 8 1 9 5
M  V30 9 1 10 2
M  V30 10 1 11 5
M  V30 11 1 12 1
M  V30 END BOND
M  V30 END CTAB
M  END
$$$$
R-group 1007 (39593-1)
     RDKit          3D

  0  0  0  0  0  0  0  0  0  0999 V3000
M  V30 BEGIN CTAB
M  V30 COUNTS 16 15 0 0 1
M  V30 BEGIN ATOM
M  V30 1 C 73.680600 55.426800 41.808000 0 CFG=1
M  V30 2 O 73.272300 56.058000 42.970400 0
M  V30 3 C 75.032500 56.078900 41.593200 0
M  V30 4 O 75.810200 56.058000 42.539000 0
M  V30 5 N 75.258200 56.858000 40.524900 0
M  V30 6 C 74.248200 57.201000 39.519400 0
M  V30 7 C 76.504200 57.624300 40.447400 0
M  V30 8 H 72.955700 55.784800 41.086200 0
M  V30 9 H 74.047700 56.365500 38.847900 0
M  V30 10 H 73.313500 57.527500 39.975400 0
M  V30 11 H 74.553400 58.054700 38.924700 0
M  V30 12 H 76.802200 58.055600 41.403700 0
M  V30 13 H 77.272200 56.933600 40.128400 0
M  V30 14 H 76.484300 58.441500 39.725400 0
M  V30 15 H 72.877000 55.421900 43.564400 0
M  V30 16 R 73.534400 53.857700 41.806400 0
M  V30 END ATOM
M  V30 BEGIN BOND
M  V30 1 1 2 1
M  V30 2 1 3 1
M  V30 3 2 4 3
M  V30 4 1 5 3
M  V30 5 1 6 5
M  V30 6 1 7 5
M  V30 7 1 1 8 CFG=3
M  V30 8 1 9 6
M  V30 9 1 10 6
M  V30 10 1 11 6
M  V30 11 1 12 7
M  V30 12 1 13 7
M  V30 13 1 14 7
M  V30 14 1 15 2
M  V30 15 1 16 1
M  V30 END BOND
M  V30 END CTAB
M  END
$$$$
R-group 1008 (10942-1)
     RDKit          3D

  0  0  0  0  0  0  0  0  0  0999 V3000
M  V30 BEGIN CTAB
M  V30 COUNTS 18 18 0 0 1
M  V30 BEGIN ATOM
M  V30 1 C 74.631400 55.239300 42.041600 0 CFG=2
M  V30 2 C 75.296600 55.637800 43.371700 0
M  V30 3 C 73.635300 56.343500 41.713700 0
M  V30 4 C 74.073000 57.804200 41.668300 0
M  V30 5 C 73.003800 58.056400 40.600100 0
M  V30 6 C 73.049700 56.558800 40.305000 0
M  V30 7 H 75.425300 55.238900 41.296100 0
M  V30 8 H 74.520400 55.657500 44.125000 0
M  V30 9 H 76.072100 54.965900 43.724500 0
M  V30 10 H 75.753600 56.626400 43.328200 0
M  V30 11 H 72.872300 56.320100 42.480700 0
M  V30 12 H 73.918300 58.346900 42.600300 0
M  V30 13 H 75.103500 57.884300 41.324700 0
M  V30 14 H 72.072400 58.391200 41.048800 0
M  V30 15 H 73.272200 58.688400 39.753900 0
M  V30 16 H 73.756300 56.312300 39.510700 0
M  V30 17 H 72.073100 56.114500 40.122500 0
M  V30 18 R 73.948300 53.823600 42.072400 0
M  V30 END ATOM
M  V30 BEGIN BOND
M  V30 1 1 2 1
M  V30 2 1 3 1
M  V30 3 1 4 3
M  V30 4 1 5 4
M  V30 5 1 6 3
M  V30 6 1 6 5
M  V30 7 1 1 7 CFG=3
M  V30 8 1 8 2
M  V30 9 1 9 2
M  V30 10 1 10 2
M  V30 11 1 11 3
M  V30 12 1 12 4
M  V30 13 1 13 4
M  V30 14 1 14 5
M  V30 15 1 15 5
M  V30 16 1 16 6
M  V30 17 1 17 6
M  V30 18 1 18 1
M  V30 END BOND
M  V30 END CTAB
M  END
$$$$
R-group 1009 (26647-1)
     RDKit          3D

  0  0  0  0  0  0  0  0  0  0999 V3000
M  V30 BEGIN CTAB
M  V30 COUNTS 11 10 0 0 1
M  V30 BEGIN ATOM
M  V30 1 C 73.448600 54.793600 42.024500 0
M  V30 2 C 74.866500 55.387700 42.001900 0
M  V30 3 F 75.398900 55.356100 43.227500 0
M  V30 4 F 75.663700 54.741300 41.168900 0
M  V30 5 C 74.847800 56.818100 41.484200 0
M  V30 6 F 74.369400 56.854600 40.239100 0
M  V30 7 F 74.070700 57.562800 42.270900 0
M  V30 8 F 76.107300 57.257400 41.477200 0
M  V30 9 H 72.872300 55.224100 41.205100 0
M  V30 10 H 72.936900 55.143400 42.925100 0
M  V30 11 R 73.341600 53.259700 41.927300 0
M  V30 END ATOM
M  V30 BEGIN BOND
M  V30 1 1 2 1
M  V30 2 1 3 2
M  V30 3 1 4 2
M  V30 4 1 5 2
M  V30 5 1 6 5
M  V30 6 1 7 5
M  V30 7 1 8 5
M  V30 8 1 9 1
M  V30 9 1 10 1
M  V30 10 1 11 1
M  V30 END BOND
M  V30 END CTAB
M  END
$$$$
R-group 1010 (798-1)
     RDKit          3D

  0  0  0  0  0  0  0  0  0  0999 V3000
M  V30 BEGIN CTAB
M  V30 COUNTS 9 8 0 0 1
M  V30 BEGIN ATOM
M  V30 1 C 74.214700 55.537800 42.774300 0 CFG=1
M  V30 2 C 75.672300 55.939900 43.038000 0
M  V30 3 O 73.672300 56.590200 42.003700 0
M  V30 4 H 73.685000 55.578900 43.723500 0
M  V30 5 H 76.106600 55.309700 43.809000 0
M  V30 6 H 76.281200 55.874100 42.135000 0
M  V30 7 H 75.745900 56.964300 43.404000 0
M  V30 8 H 73.767900 57.397200 42.484800 0
M  V30 9 R 74.002900 54.136300 42.085800 0
M  V30 END ATOM
M  V30 BEGIN BOND
M  V30 1 1 2 1
M  V30 2 1 3 1
M  V30 3 1 1 4 CFG=1
M  V30 4 1 5 2
M  V30 5 1 6 2
M  V30 6 1 7 2
M  V30 7 1 8 3
M  V30 8 1 9 1
M  V30 END BOND
M  V30 END CTAB
M  END
$$$$
R-group 1011 (3305-1)
     RDKit          3D

  0  0  0  0  0  0  0  0  0  0999 V3000
M  V30 BEGIN CTAB
M  V30 COUNTS 13 13 0 0 1
M  V30 BEGIN ATOM
M  V30 1 C 74.649800 55.098400 41.669000 0 CFG=2
M  V30 2 C 74.985800 55.862800 42.964700 0
M  V30 3 N 74.359500 57.144500 42.803400 0
M  V30 4 C 73.672300 57.258100 41.687900 0
M  V30 5 O 72.872900 58.158600 41.443000 0
M  V30 6 C 73.872300 56.086600 40.784300 0
M  V30 7 H 75.599800 54.887100 41.178700 0
M  V30 8 H 74.569800 55.394800 43.857500 0
M  V30 9 H 76.062300 55.983600 43.100800 0
M  V30 10 H 74.421400 56.374900 39.888600 0
M  V30 11 H 72.874000 55.759600 40.512600 0
M  V30 12 H 74.315700 57.826700 43.545800 0
M  V30 13 R 73.895400 53.763100 41.912900 0
M  V30 END ATOM
M  V30 BEGIN BOND
M  V30 1 1 2 1
M  V30 2 1 3 2
M  V30 3 1 4 3
M  V30 4 2 5 4
M  V30 5 1 6 1
M  V30 6 1 6 4
M  V30 7 1 1 7 CFG=3
M  V30 8 1 8 2
M  V30 9 1 9 2
M  V30 10 1 10 6
M  V30 11 1 11 6
M  V30 12 1 12 3
M  V30 13 1 13 1
M  V30 END BOND
M  V30 END CTAB
M  END
$$$$
R-group 1012 (31078-1)
     RDKit          3D

  0  0  0  0  0  0  0  0  0  0999 V3000
M  V30 BEGIN CTAB
M  V30 COUNTS 15 15 0 0 1
M  V30 BEGIN ATOM
M  V30 1 C 73.995600 54.738700 41.763600 0
M  V30 2 C 73.273600 55.792200 40.914100 0
M  V30 3 C 73.648100 57.124200 41.522900 0
M  V30 4 F 72.959300 58.058000 40.887200 0
M  V30 5 F 73.332300 57.236400 42.816800 0
M  V30 6 F 74.963900 57.257900 41.353900 0
M  V30 7 C 73.280700 55.731100 39.384400 0
M  V30 8 C 71.981100 55.611300 40.124700 0
M  V30 9 H 73.940900 55.036700 42.810300 0
M  V30 10 H 75.055600 54.815800 41.516200 0
M  V30 11 H 73.457800 56.663800 38.850900 0
M  V30 12 H 73.581300 54.856900 38.824900 0
M  V30 13 H 71.456600 54.667000 40.207700 0
M  V30 14 H 71.313300 56.457600 39.988300 0
M  V30 15 R 73.588800 53.261200 41.750600 0
M  V30 END ATOM
M  V30 BEGIN BOND
M  V30 1 1 2 1
M  V30 2 1 3 2
M  V30 3 1 4 3
M  V30 4 1 5 3
M  V30 5 1 6 3
M  V30 6 1 7 2
M  V30 7 1 8 2
M  V30 8 1 8 7
M  V30 9 1 9 1
M  V30 10 1 10 1
M  V30 11 1 11 7
M  V30 12 1 12 7
M  V30 13 1 13 8
M  V30 14 1 14 8
M  V30 15 1 15 1
M  V30 END BOND
M  V30 END CTAB
M  END
$$$$
R-group 1013 (10772-1)
     RDKit          3D

  0  0  0  0  0  0  0  0  0  0999 V3000
M  V30 BEGIN CTAB
M  V30 COUNTS 16 16 0 0 1
M  V30 BEGIN ATOM
M  V30 1 C 72.714000 54.135600 42.395300 0
M  V30 2 O 73.763200 55.087000 42.524400 0
M  V30 3 C 73.407700 56.420400 42.795700 0
M  V30 4 C 74.670800 57.237800 42.951500 0
M  V30 5 C 75.954300 56.621700 43.470100 0
M  V30 6 C 75.861700 57.013800 42.025600 0
M  V30 7 H 71.868100 54.457900 41.794900 0
M  V30 8 H 72.295900 53.720500 43.311100 0
M  V30 9 H 72.872300 56.844000 41.949900 0
M  V30 10 H 72.800700 56.491200 43.698500 0
M  V30 11 H 74.467600 58.241400 43.315900 0
M  V30 12 H 76.547000 57.251100 44.125200 0
M  V30 13 H 75.955300 55.560700 43.714800 0
M  V30 14 H 75.804900 56.205900 41.299100 0
M  V30 15 H 76.471700 57.861100 41.716200 0
M  V30 16 R 73.391200 53.013600 41.651100 0
M  V30 END ATOM
M  V30 BEGIN BOND
M  V30 1 1 2 1
M  V30 2 1 3 2
M  V30 3 1 4 3
M  V30 4 1 5 4
M  V30 5 1 6 4
M  V30 6 1 6 5
M  V30 7 1 7 1
M  V30 8 1 8 1
M  V30 9 1 9 3
M  V30 10 1 10 3
M  V30 11 1 11 4
M  V30 12 1 12 5
M  V30 13 1 13 5
M  V30 14 1 14 6
M  V30 15 1 15 6
M  V30 16 1 16 1
M  V30 END BOND
M  V30 END CTAB
M  END
$$$$
R-group 1014 (1435-2)
     RDKit          3D

  0  0  0  0  0  0  0  0  0  0999 V3000
M  V30 BEGIN CTAB
M  V30 COUNTS 12 12 0 0 1
M  V30 BEGIN ATOM
M  V30 1 C 73.630400 54.812300 42.745900 0
M  V30 2 C 74.436800 55.767900 41.963400 0
M  V30 3 C 75.672300 56.268600 42.228700 0
M  V30 4 C 76.067900 56.858300 41.002300 0
M  V30 5 N 75.070900 56.857400 40.124900 0
M  V30 6 N 74.051800 56.277000 40.753800 0
M  V30 7 H 72.622200 55.190300 42.882400 0
M  V30 8 H 74.072800 54.843200 43.731400 0
M  V30 9 H 76.265600 56.112300 43.117000 0
M  V30 10 H 77.011400 57.310500 40.734400 0
M  V30 11 H 73.170800 56.103500 40.293800 0
M  V30 12 R 73.600100 53.356000 42.195200 0
M  V30 END ATOM
M  V30 BEGIN BOND
M  V30 1 1 2 1
M  V30 2 2 3 2
M  V30 3 1 4 3
M  V30 4 2 5 4
M  V30 5 1 6 2
M  V30 6 1 6 5
M  V30 7 1 7 1
M  V30 8 1 8 1
M  V30 9 1 9 3
M  V30 10 1 10 4
M  V30 11 1 11 6
M  V30 12 1 12 1
M  V30 END BOND
M  V30 END CTAB
M  END
$$$$
R-group 1015 (4211-1)
     RDKit          3D

  0  0  0  0  0  0  0  0  0  0999 V3000
M  V30 BEGIN CTAB
M  V30 COUNTS 18 17 0 0 1
M  V30 BEGIN ATOM
M  V30 1 C 75.441600 56.940600 40.260200 0
M  V30 2 C 73.938100 57.257900 40.291300 0
M  V30 3 C 73.437300 57.809000 41.636200 0
M  V30 4 C 73.993900 57.138300 42.896900 0
M  V30 5 C 73.556300 55.687300 43.114200 0
M  V30 6 O 73.867400 54.918100 41.968800 0
M  V30 7 H 75.672100 56.458200 39.324700 0
M  V30 8 H 76.072300 57.822600 40.357500 0
M  V30 9 H 75.747100 56.234400 41.030200 0
M  V30 10 H 73.386700 56.350900 40.047600 0
M  V30 11 H 73.679100 57.957700 39.494700 0
M  V30 12 H 72.356500 57.787300 41.647000 0
M  V30 13 H 73.672200 58.858300 41.721000 0
M  V30 14 H 73.633500 57.736000 43.724800 0
M  V30 15 H 75.080100 57.216900 42.933700 0
M  V30 16 H 72.485800 55.660600 43.323800 0
M  V30 17 H 74.086200 55.289100 43.977200 0
M  V30 18 R 73.485300 53.555000 41.982200 0
M  V30 END ATOM
M  V30 BEGIN BOND
M  V30 1 1 2 1
M  V30 2 1 3 2
M  V30 3 1 4 3
M  V30 4 1 5 4
M  V30 5 1 6 5
M  V30 6 1 7 1
M  V30 7 1 8 1
M  V30 8 1 9 1
M  V30 9 1 10 2
M  V30 10 1 11 2
M  V30 11 1 12 3
M  V30 12 1 13 3
M  V30 13 1 14 4
M  V30 14 1 15 4
M  V30 15 1 16 5
M  V30 16 1 17 5
M  V30 17 1 18 6
M  V30 END BOND
M  V30 END CTAB
M  END
$$$$
R-group 1016 (5335-1)
     RDKit          3D

  0  0  0  0  0  0  0  0  0  0999 V3000
M  V30 BEGIN CTAB
M  V30 COUNTS 15 14 0 0 1
M  V30 BEGIN ATOM
M  V30 1 C 73.349800 57.557700 43.238600 0
M  V30 2 C 73.308700 56.027300 43.233300 0
M  V30 3 C 73.975300 55.350800 42.012300 0 CFG=1
M  V30 4 C 75.486400 55.655300 42.043700 0
M  V30 5 O 75.740100 56.862100 41.392200 0
M  V30 6 H 72.819700 57.929500 44.116900 0
M  V30 7 H 74.375300 57.907100 43.324800 0
M  V30 8 H 72.874100 57.979000 42.352100 0
M  V30 9 H 72.268700 55.682200 43.320700 0
M  V30 10 H 73.802000 55.659200 44.118700 0
M  V30 11 H 73.578000 55.852000 41.126400 0
M  V30 12 H 75.872700 55.697900 43.067200 0
M  V30 13 H 76.045600 54.884700 41.535500 0
M  V30 14 H 75.133100 57.510700 41.732400 0
M  V30 15 R 73.609100 53.837800 41.859900 0
M  V30 END ATOM
M  V30 BEGIN BOND
M  V30 1 1 2 1
M  V30 2 1 3 2
M  V30 3 1 4 3
M  V30 4 1 5 4
M  V30 5 1 6 1
M  V30 6 1 7 1
M  V30 7 1 8 1
M  V30 8 1 9 2
M  V30 9 1 10 2
M  V30 10 1 3 11 CFG=3
M  V30 11 1 12 4
M  V30 12 1 13 4
M  V30 13 1 14 5
M  V30 14 1 15 3
M  V30 END BOND
M  V30 END CTAB
M  END
$$$$
R-group 1017 (1583-1)
     RDKit          3D

  0  0  0  0  0  0  0  0  0  0999 V3000
M  V30 BEGIN CTAB
M  V30 COUNTS 9 8 0 0 1
M  V30 BEGIN ATOM
M  V30 1 O 73.821400 55.183700 42.124700 0
M  V30 2 C 75.100900 55.654700 42.234400 0
M  V30 3 F 75.672100 55.292200 43.409000 0
M  V30 4 F 75.887000 55.259200 41.207000 0
M  V30 5 C 75.082300 57.184800 42.240100 0
M  V30 6 F 76.335800 57.648200 42.197100 0
M  V30 7 F 74.387300 57.658000 41.207100 0
M  V30 8 H 74.614200 57.571000 43.145400 0
M  V30 9 R 73.532700 53.791500 41.886500 0
M  V30 END ATOM
M  V30 BEGIN BOND
M  V30 1 1 2 1
M  V30 2 1 3 2
M  V30 3 1 4 2
M  V30 4 1 5 2
M  V30 5 1 6 5
M  V30 6 1 7 5
M  V30 7 1 8 5
M  V30 8 1 9 1
M  V30 END BOND
M  V30 END CTAB
M  END
$$$$
R-group 1018 (1355-1)
     RDKit          3D

  0  0  0  0  0  0  0  0  0  0999 V3000
M  V30 BEGIN CTAB
M  V30 COUNTS 9 8 0 0 1
M  V30 BEGIN ATOM
M  V30 1 C 74.549700 55.304800 42.582600 0
M  V30 2 C 73.728700 56.559000 42.287400 0
M  V30 3 C 73.469300 56.733800 40.855600 0
M  V30 4 N 73.272400 56.857600 39.725400 0
M  V30 5 H 75.489500 55.359500 42.032400 0
M  V30 6 H 74.834900 55.376600 43.632700 0
M  V30 7 H 74.275200 57.442000 42.618300 0
M  V30 8 H 72.794800 56.543300 42.845100 0
M  V30 9 R 73.866900 53.927700 42.332900 0
M  V30 END ATOM
M  V30 BEGIN BOND
M  V30 1 1 2 1
M  V30 2 1 3 2
M  V30 3 3 4 3
M  V30 4 1 5 1
M  V30 5 1 6 1
M  V30 6 1 7 2
M  V30 7 1 8 2
M  V30 8 1 9 1
M  V30 END BOND
M  V30 END CTAB
M  END
$$$$
R-group 1019 (7506-3)
     RDKit          3D

  0  0  0  0  0  0  0  0  0  0999 V3000
M  V30 BEGIN CTAB
M  V30 COUNTS 13 13 0 0 1
M  V30 BEGIN ATOM
M  V30 1 N 73.272600 54.462800 42.124700 0
M  V30 2 C 74.071800 55.516900 41.970500 0
M  V30 3 O 75.149400 55.494700 41.376000 0
M  V30 4 C 73.463900 56.736900 42.545300 0 CFG=1
M  V30 5 C 74.420400 57.827600 42.888300 0
M  V30 6 C 73.530800 57.964900 41.671600 0 CFG=2
M  V30 7 F 72.472100 58.856400 41.742000 0
M  V30 8 H 72.611400 56.616100 43.213600 0
M  V30 9 H 74.182800 58.455900 43.724700 0
M  V30 10 H 75.484600 57.651700 42.743400 0
M  V30 11 H 73.893100 57.839900 40.655100 0
M  V30 12 H 72.453600 54.605900 42.700500 0
M  V30 13 R 73.485100 53.120600 41.674300 0
M  V30 END ATOM
M  V30 BEGIN BOND
M  V30 1 1 2 1
M  V30 2 2 3 2
M  V30 3 1 4 2
M  V30 4 1 5 4
M  V30 5 1 6 4
M  V30 6 1 6 5
M  V30 7 1 7 6
M  V30 8 1 4 8 CFG=1
M  V30 9 1 9 5
M  V30 10 1 10 5
M  V30 11 1 6 11 CFG=3
M  V30 12 1 12 1
M  V30 13 1 13 1
M  V30 END BOND
M  V30 END CTAB
M  END
$$$$
R-group 1020 (2895-1)
     RDKit          3D

  0  0  0  0  0  0  0  0  0  0999 V3000
M  V30 BEGIN CTAB
M  V30 COUNTS 15 14 0 0 1
M  V30 BEGIN ATOM
M  V30 1 C 75.882800 57.131200 41.425800 0
M  V30 2 O 75.491100 56.856100 42.767700 0
M  V30 3 C 74.856800 55.595300 42.938800 0
M  V30 4 C 73.366700 55.619700 42.534500 0
M  V30 5 C 72.638500 54.250000 42.401900 0
M  V30 6 H 76.471300 58.049400 41.376300 0
M  V30 7 H 76.497000 56.327300 41.020100 0
M  V30 8 H 75.020300 57.256000 40.772100 0
M  V30 9 H 74.941100 55.299400 43.987000 0
M  V30 10 H 75.425500 54.866000 42.370700 0
M  V30 11 H 73.272600 56.130000 41.577200 0
M  V30 12 H 72.829400 56.242600 43.250600 0
M  V30 13 H 71.703600 54.439100 41.875300 0
M  V30 14 H 72.283100 53.799100 43.322400 0
M  V30 15 R 73.374600 53.158200 41.622900 0
M  V30 END ATOM
M  V30 BEGIN BOND
M  V30 1 1 2 1
M  V30 2 1 3 2
M  V30 3 1 4 3
M  V30 4 1 5 4
M  V30 5 1 6 1
M  V30 6 1 7 1
M  V30 7 1 8 1
M  V30 8 1 9 3
M  V30 9 1 10 3
M  V30 10 1 11 4
M  V30 11 1 12 4
M  V30 12 1 13 5
M  V30 13 1 14 5
M  V30 14 1 15 5
M  V30 END BOND
M  V30 END CTAB
M  END
$$$$
R-group 1021 (15270-1)
     RDKit          3D

  0  0  0  0  0  0  0  0  0  0999 V3000
M  V30 BEGIN CTAB
M  V30 COUNTS 18 17 0 0 1
M  V30 BEGIN ATOM
M  V30 1 C 74.428800 55.523000 42.726000 0 CFG=2
M  V30 2 C 73.153200 56.350300 42.693300 0
M  V30 3 O 73.272200 57.657900 43.174400 0
M  V30 4 C 75.655900 56.352200 42.188500 0
M  V30 5 C 76.227800 57.257900 43.296300 0
M  V30 6 C 75.459400 57.172400 40.893100 0
M  V30 7 H 74.620200 55.372600 43.786700 0
M  V30 8 H 72.872300 56.430700 41.646100 0
M  V30 9 H 72.379700 55.856400 43.289100 0
M  V30 10 H 76.472700 55.698100 41.948000 0
M  V30 11 H 75.532700 57.972800 43.722600 0
M  V30 12 H 77.037900 57.877200 42.918300 0
M  V30 13 H 76.595400 56.657700 44.124600 0
M  V30 14 H 74.489500 57.657800 40.851000 0
M  V30 15 H 76.221600 57.948100 40.806600 0
M  V30 16 H 75.561700 56.582500 39.988400 0
M  V30 17 H 73.373100 57.621200 44.115200 0
M  V30 18 R 74.098500 54.097000 42.120500 0
M  V30 END ATOM
M  V30 BEGIN BOND
M  V30 1 1 2 1
M  V30 2 1 3 2
M  V30 3 1 4 1
M  V30 4 1 5 4
M  V30 5 1 6 4
M  V30 6 1 1 7 CFG=1
M  V30 7 1 8 2
M  V30 8 1 9 2
M  V30 9 1 10 4
M  V30 10 1 11 5
M  V30 11 1 12 5
M  V30 12 1 13 5
M  V30 13 1 14 6
M  V30 14 1 15 6
M  V30 15 1 16 6
M  V30 16 1 17 3
M  V30 17 1 18 1
M  V30 END BOND
M  V30 END CTAB
M  END
$$$$
R-group 1022 (41520-4)
     RDKit          3D

  0  0  0  0  0  0  0  0  0  0999 V3000
M  V30 BEGIN CTAB
M  V30 COUNTS 19 19 0 0 1
M  V30 BEGIN ATOM
M  V30 1 C 73.349000 54.764300 42.067700 0
M  V30 2 C 74.771700 55.317800 42.229600 0 CFG=2
M  V30 3 C 75.311100 55.203000 43.649700 0
M  V30 4 C 76.370900 56.241900 43.795100 0
M  V30 5 C 76.375400 57.017300 42.470400 0
M  V30 6 C 74.972400 56.781300 41.879800 0 CFG=2
M  V30 7 O 73.942200 57.507800 42.523900 0
M  V30 8 H 72.885400 55.265100 41.219100 0
M  V30 9 H 72.735500 55.047800 42.922100 0
M  V30 10 H 75.458000 54.772200 41.583300 0
M  V30 11 H 74.541500 55.257800 44.420300 0
M  V30 12 H 75.863000 54.285500 43.769700 0
M  V30 13 H 77.256300 55.660400 44.125600 0
M  V30 14 H 76.072400 56.975700 44.524700 0
M  V30 15 H 77.093500 56.594600 41.773400 0
M  V30 16 H 76.667100 58.057000 42.616300 0
M  V30 17 H 74.942000 56.964800 40.805400 0
M  V30 18 H 73.899300 57.220200 43.422700 0
M  V30 19 R 73.277500 53.240000 41.850100 0
M  V30 END ATOM
M  V30 BEGIN BOND
M  V30 1 1 2 1
M  V30 2 1 3 2
M  V30 3 1 4 3
M  V30 4 1 5 4
M  V30 5 1 6 2
M  V30 6 1 6 5
M  V30 7 1 7 6
M  V30 8 1 8 1
M  V30 9 1 9 1
M  V30 10 1 2 10 CFG=3
M  V30 11 1 11 3
M  V30 12 1 12 3
M  V30 13 1 13 4
M  V30 14 1 14 4
M  V30 15 1 15 5
M  V30 16 1 16 5
M  V30 17 1 6 17 CFG=3
M  V30 18 1 18 7
M  V30 19 1 19 1
M  V30 END BOND
M  V30 END CTAB
M  END
$$$$
R-group 1023 (41789-1)
     RDKit          3D

  0  0  0  0  0  0  0  0  0  0999 V3000
M  V30 BEGIN CTAB
M  V30 COUNTS 19 19 0 0 1
M  V30 BEGIN ATOM
M  V30 1 O 73.735100 54.642200 42.524700 0
M  V30 2 C 75.003300 55.289300 42.523400 0 CFG=2
M  V30 3 C 75.621300 55.342800 43.937400 0
M  V30 4 C 74.617700 56.661100 42.059900 0
M  V30 5 C 73.841200 56.833300 40.746400 0
M  V30 6 C 73.112100 57.969000 41.436500 0
M  V30 7 C 73.456500 57.360600 42.783100 0
M  V30 8 H 75.701300 54.853600 41.816400 0
M  V30 9 H 76.169100 56.270900 44.105000 0
M  V30 10 H 74.845000 55.257900 44.698100 0
M  V30 11 H 76.324200 54.536200 44.124800 0
M  V30 12 H 75.489100 57.318200 42.033900 0
M  V30 13 H 74.443800 57.129400 39.887100 0
M  V30 14 H 73.159900 56.022400 40.502100 0
M  V30 15 H 73.672200 58.858000 41.324800 0
M  V30 16 H 72.072200 58.104700 41.180800 0
M  V30 17 H 72.684800 56.690500 43.162600 0
M  V30 18 H 73.773400 58.058300 43.551700 0
M  V30 19 R 73.598400 53.297300 42.130600 0
M  V30 END ATOM
M  V30 BEGIN BOND
M  V30 1 1 2 1
M  V30 2 1 3 2
M  V30 3 1 4 2
M  V30 4 1 5 4
M  V30 5 1 6 5
M  V30 6 1 7 4
M  V30 7 1 7 6
M  V30 8 1 2 8 CFG=3
M  V30 9 1 9 3
M  V30 10 1 10 3
M  V30 11 1 11 3
M  V30 12 1 12 4
M  V30 13 1 13 5
M  V30 14 1 14 5
M  V30 15 1 15 6
M  V30 16 1 16 6
M  V30 17 1 17 7
M  V30 18 1 18 7
M  V30 19 1 19 1
M  V30 END BOND
M  V30 END CTAB
M  END
$$$$
R-group 1024 (4715-1)
     RDKit          3D

  0  0  0  0  0  0  0  0  0  0999 V3000
M  V30 BEGIN CTAB
M  V30 COUNTS 9 9 0 0 1
M  V30 BEGIN ATOM
M  V30 1 C 74.255300 55.053500 41.793100 0
M  V30 2 N 75.271700 55.318500 41.001100 0
M  V30 3 O 75.453600 56.698600 41.056600 0
M  V30 4 N 74.520000 57.258000 41.927400 0
M  V30 5 C 73.861900 56.257100 42.409100 0
M  V30 6 N 72.879700 56.457900 43.378400 0
M  V30 7 H 72.753100 55.645900 44.055500 0
M  V30 8 H 72.851500 57.358400 43.832000 0
M  V30 9 R 73.693100 53.674500 41.936200 0
M  V30 END ATOM
M  V30 BEGIN BOND
M  V30 1 2 2 1
M  V30 2 1 3 2
M  V30 3 1 4 3
M  V30 4 1 5 1
M  V30 5 2 5 4
M  V30 6 1 6 5
M  V30 7 1 7 6
M  V30 8 1 8 6
M  V30 9 1 9 1
M  V30 END BOND
M  V30 END CTAB
M  END
$$$$
R-group 1025 (43291-2)
     RDKit          3D

  0  0  0  0  0  0  0  0  0  0999 V3000
M  V30 BEGIN CTAB
M  V30 COUNTS 13 12 0 0 1
M  V30 BEGIN ATOM
M  V30 1 C 73.712300 54.954300 42.623700 0
M  V30 2 C 74.654900 55.741400 41.710300 0 CFG=2
M  V30 3 N 75.388000 56.706000 42.509200 0
M  V30 4 C 73.931300 56.484400 40.563900 0
M  V30 5 F 73.084600 55.748300 39.857600 0
M  V30 6 F 73.272400 57.553400 41.017900 0
M  V30 7 F 74.872200 56.858000 39.724800 0
M  V30 8 H 72.738100 55.424200 42.654800 0
M  V30 9 H 74.072300 55.049600 43.649600 0
M  V30 10 H 75.422800 55.075400 41.325200 0
M  V30 11 H 76.014500 57.220600 41.906100 0
M  V30 12 H 74.737100 57.386700 42.875500 0
M  V30 13 R 73.560200 53.450300 42.291900 0
M  V30 END ATOM
M  V30 BEGIN BOND
M  V30 1 1 2 1
M  V30 2 1 3 2
M  V30 3 1 4 2
M  V30 4 1 5 4
M  V30 5 1 6 4
M  V30 6 1 7 4
M  V30 7 1 8 1
M  V30 8 1 9 1
M  V30 9 1 2 10 CFG=3
M  V30 10 1 11 3
M  V30 11 1 12 3
M  V30 12 1 13 1
M  V30 END BOND
M  V30 END CTAB
M  END
$$$$
R-group 1026 (4911-1)
     RDKit          3D

  0  0  0  0  0  0  0  0  0  0999 V3000
M  V30 BEGIN CTAB
M  V30 COUNTS 14 14 0 0 1
M  V30 BEGIN ATOM
M  V30 1 C 73.509900 54.621300 42.624700 0
M  V30 2 C 74.057900 55.508000 41.592700 0
M  V30 3 N 75.258500 56.071800 41.667200 0
M  V30 4 C 75.503400 56.857300 40.553600 0
M  V30 5 C 76.705000 57.760300 40.509100 0
M  V30 6 C 74.476800 56.856300 39.643100 0
M  V30 7 S 73.197400 55.867000 40.110100 0
M  V30 8 H 72.494500 54.939100 42.832500 0
M  V30 9 H 74.075300 54.817500 43.539300 0
M  V30 10 H 76.554400 58.530300 39.753000 0
M  V30 11 H 76.871800 58.239000 41.466800 0
M  V30 12 H 77.633400 57.296000 40.200900 0
M  V30 13 H 74.445000 57.406600 38.716100 0
M  V30 14 R 73.492600 53.129900 42.241700 0
M  V30 END ATOM
M  V30 BEGIN BOND
M  V30 1 1 2 1
M  V30 2 2 3 2
M  V30 3 1 4 3
M  V30 4 1 5 4
M  V30 5 2 6 4
M  V30 6 1 7 2
M  V30 7 1 7 6
M  V30 8 1 8 1
M  V30 9 1 9 1
M  V30 10 1 10 5
M  V30 11 1 11 5
M  V30 12 1 12 5
M  V30 13 1 13 6
M  V30 14 1 14 1
M  V30 END BOND
M  V30 END CTAB
M  END
$$$$
R-group 1027 (7596-1)
     RDKit          3D

  0  0  0  0  0  0  0  0  0  0999 V3000
M  V30 BEGIN CTAB
M  V30 COUNTS 15 14 0 0 1
M  V30 BEGIN ATOM
M  V30 1 C 73.598300 55.095000 42.738700 0
M  V30 2 C 74.162500 56.331700 42.016000 0 CFG=1
M  V30 3 C 73.656600 57.613600 42.690800 0
M  V30 4 C 75.703400 56.291900 41.980900 0
M  V30 5 O 76.199400 57.251300 41.077300 0
M  V30 6 H 74.072200 55.094600 43.719900 0
M  V30 7 H 72.538800 55.264900 42.925000 0
M  V30 8 H 73.774400 56.367400 40.999500 0
M  V30 9 H 73.995900 57.703200 43.724400 0
M  V30 10 H 73.999800 58.478000 42.133400 0
M  V30 11 H 72.569100 57.659900 42.695800 0
M  V30 12 H 76.062900 55.315300 41.663300 0
M  V30 13 H 76.116900 56.478200 42.972600 0
M  V30 14 H 75.968400 56.991100 40.198500 0
M  V30 15 R 73.703900 53.699700 42.041900 0
M  V30 END ATOM
M  V30 BEGIN BOND
M  V30 1 1 2 1
M  V30 2 1 3 2
M  V30 3 1 4 2
M  V30 4 1 5 4
M  V30 5 1 6 1
M  V30 6 1 7 1
M  V30 7 1 2 8 CFG=3
M  V30 8 1 9 3
M  V30 9 1 10 3
M  V30 10 1 11 3
M  V30 11 1 12 4
M  V30 12 1 13 4
M  V30 13 1 14 5
M  V30 14 1 15 1
M  V30 END BOND
M  V30 END CTAB
M  END
$$$$
R-group 1028 (14927-1)
     RDKit          3D

  0  0  0  0  0  0  0  0  0  0999 V3000
M  V30 BEGIN CTAB
M  V30 COUNTS 11 11 0 0 1
M  V30 BEGIN ATOM
M  V30 1 N 73.714400 54.764700 41.545000 0
M  V30 2 C 73.682600 55.505900 42.782400 0
M  V30 3 C 73.672100 56.898400 42.246600 0
M  V30 4 O 73.412800 57.866500 42.924700 0
M  V30 5 N 73.791300 56.858700 40.936900 0
M  V30 6 C 73.740400 55.612800 40.477400 0
M  V30 7 O 73.671300 55.348900 39.287000 0
M  V30 8 H 72.766100 55.274900 43.311600 0
M  V30 9 H 74.545300 55.356900 43.418100 0
M  V30 10 H 73.779200 57.679800 40.344700 0
M  V30 11 R 73.541400 53.307400 41.653300 0
M  V30 END ATOM
M  V30 BEGIN BOND
M  V30 1 1 2 1
M  V30 2 1 3 2
M  V30 3 2 4 3
M  V30 4 1 5 3
M  V30 5 1 6 1
M  V30 6 1 6 5
M  V30 7 2 7 6
M  V30 8 1 8 2
M  V30 9 1 9 2
M  V30 10 1 10 5
M  V30 11 1 11 1
M  V30 END BOND
M  V30 END CTAB
M  END
$$$$
R-group 1029 (10955-1)
     RDKit          3D

  0  0  0  0  0  0  0  0  0  0999 V3000
M  V30 BEGIN CTAB
M  V30 COUNTS 11 11 0 0 1
M  V30 BEGIN ATOM
M  V30 1 C 73.239600 54.582500 42.239300 0
M  V30 2 C 74.249500 55.628900 41.918300 0
M  V30 3 C 74.493500 56.358700 40.793100 0
M  V30 4 C 75.768200 56.918300 41.088500 0
M  V30 5 N 76.070300 56.835300 42.354300 0
M  V30 6 O 75.134200 55.942500 42.893100 0
M  V30 7 H 72.252900 54.848200 41.884300 0
M  V30 8 H 73.210100 54.476000 43.324800 0
M  V30 9 H 73.962000 56.365700 39.863300 0
M  V30 10 H 76.434200 57.458000 40.453300 0
M  V30 11 R 73.554100 53.212900 41.641800 0
M  V30 END ATOM
M  V30 BEGIN BOND
M  V30 1 1 2 1
M  V30 2 2 3 2
M  V30 3 1 4 3
M  V30 4 2 5 4
M  V30 5 1 6 2
M  V30 6 1 6 5
M  V30 7 1 7 1
M  V30 8 1 8 1
M  V30 9 1 9 3
M  V30 10 1 10 4
M  V30 11 1 11 1
M  V30 END BOND
M  V30 END CTAB
M  END
$$$$
R-group 1030 (3853-2)
     RDKit          3D

  0  0  0  0  0  0  0  0  0  0999 V3000
M  V30 BEGIN CTAB
M  V30 COUNTS 8 7 0 0 1
M  V30 BEGIN ATOM
M  V30 1 C 73.440200 55.169600 41.917000 0
M  V30 2 F 72.872300 55.811600 40.892300 0
M  V30 3 F 72.584500 55.234600 42.924500 0
M  V30 4 C 74.671200 56.014600 42.255100 0
M  V30 5 F 74.274600 57.258200 42.519200 0
M  V30 6 F 75.272200 55.533800 43.325800 0
M  V30 7 F 75.538700 56.041700 41.243600 0
M  V30 8 R 73.630700 53.669200 41.544600 0
M  V30 END ATOM
M  V30 BEGIN BOND
M  V30 1 1 2 1
M  V30 2 1 3 1
M  V30 3 1 4 1
M  V30 4 1 5 4
M  V30 5 1 6 4
M  V30 6 1 7 4
M  V30 7 1 8 1
M  V30 END BOND
M  V30 END CTAB
M  END
$$$$
R-group 1031 (35689-6)
     RDKit          3D

  0  0  0  0  0  0  0  0  0  0999 V3000
M  V30 BEGIN CTAB
M  V30 COUNTS 16 16 0 0 1
M  V30 BEGIN ATOM
M  V30 1 C 74.098500 55.051100 42.397700 0 CFG=1
M  V30 2 C 75.544400 55.511200 42.242300 0
M  V30 3 C 75.441000 56.957900 41.784000 0 CFG=1
M  V30 4 O 76.472200 57.274400 40.924800 0
M  V30 5 C 74.177400 57.056900 40.967100 0 CFG=1
M  V30 6 F 74.355700 56.562300 39.735900 0
M  V30 7 C 73.272300 56.118900 41.697400 0
M  V30 8 H 73.897500 55.195400 43.457600 0
M  V30 9 H 76.072100 55.448100 43.193000 0
M  V30 10 H 76.072100 54.913400 41.508600 0
M  V30 11 H 75.409200 57.628100 42.645300 0
M  V30 12 H 73.752700 58.057900 40.890000 0
M  V30 13 H 72.595500 55.734000 40.924700 0
M  V30 14 H 72.792300 56.678100 42.517100 0
M  V30 15 H 76.353800 56.780100 40.126200 0
M  V30 16 R 73.752000 53.565300 42.087900 0
M  V30 END ATOM
M  V30 BEGIN BOND
M  V30 1 1 2 1
M  V30 2 1 3 2
M  V30 3 1 4 3
M  V30 4 1 5 3
M  V30 5 1 6 5
M  V30 6 1 7 1
M  V30 7 1 7 5
M  V30 8 1 1 8 CFG=1
M  V30 9 1 9 2
M  V30 10 1 10 2
M  V30 11 1 3 11 CFG=1
M  V30 12 1 5 12 CFG=3
M  V30 13 1 13 7
M  V30 14 1 14 7
M  V30 15 1 15 4
M  V30 16 1 16 1
M  V30 END BOND
M  V30 END CTAB
M  END
$$$$
R-group 1032 (13690-1)
     RDKit          3D

  0  0  0  0  0  0  0  0  0  0999 V3000
M  V30 BEGIN CTAB
M  V30 COUNTS 12 12 0 0 1
M  V30 BEGIN ATOM
M  V30 1 N 73.679000 54.595300 41.318600 0
M  V30 2 C 73.603700 55.309500 40.171600 0
M  V30 3 N 73.666300 56.621400 40.328500 0
M  V30 4 C 73.760100 56.736000 41.707300 0
M  V30 5 C 73.622200 57.981100 42.445300 0
M  V30 6 F 72.473200 58.058700 43.104800 0
M  V30 7 F 74.603800 58.057600 43.328400 0
M  V30 8 C 73.870300 55.520700 42.306300 0
M  V30 9 H 73.434900 54.882700 39.193900 0
M  V30 10 H 73.672300 58.851200 41.796700 0
M  V30 11 H 73.915200 55.260100 43.345700 0
M  V30 12 R 73.510200 53.181800 41.579800 0
M  V30 END ATOM
M  V30 BEGIN BOND
M  V30 1 1 2 1
M  V30 2 2 3 2
M  V30 3 1 4 3
M  V30 4 1 5 4
M  V30 5 1 6 5
M  V30 6 1 7 5
M  V30 7 1 8 1
M  V30 8 2 8 4
M  V30 9 1 9 2
M  V30 10 1 10 5
M  V30 11 1 11 8
M  V30 12 1 12 1
M  V30 END BOND
M  V30 END CTAB
M  END
$$$$
R-group 1033 (21615-1)
     RDKit          3D

  0  0  0  0  0  0  0  0  0  0999 V3000
M  V30 BEGIN CTAB
M  V30 COUNTS 21 20 0 0 1
M  V30 BEGIN ATOM
M  V30 1 N 73.271500 54.420500 41.467500 0
M  V30 2 C 74.148800 55.232200 40.867100 0
M  V30 3 O 75.271900 54.888800 40.524500 0
M  V30 4 C 73.737300 56.686200 40.720600 0
M  V30 5 C 74.472800 57.556100 41.743300 0
M  V30 6 C 74.453300 57.133000 43.223100 0
M  V30 7 C 75.509700 56.047600 43.562600 0
M  V30 8 C 73.003700 56.877200 43.724800 0
M  V30 9 H 72.661300 56.816200 40.810900 0
M  V30 10 H 73.988700 57.017700 39.713300 0
M  V30 11 H 74.002700 58.531100 41.724600 0
M  V30 12 H 75.509000 57.658800 41.415700 0
M  V30 13 H 74.819400 58.025600 43.724400 0
M  V30 14 H 75.257300 55.066200 43.193000 0
M  V30 15 H 75.674000 55.896200 44.624400 0
M  V30 16 H 76.472000 56.310500 43.128600 0
M  V30 17 H 72.472100 56.177300 43.099400 0
M  V30 18 H 72.872500 56.458200 44.724200 0
M  V30 19 H 72.469400 57.823800 43.707300 0
M  V30 20 H 72.426000 54.855100 41.802500 0
M  V30 21 R 73.333900 52.984800 41.674000 0
M  V30 END ATOM
M  V30 BEGIN BOND
M  V30 1 1 2 1
M  V30 2 2 3 2
M  V30 3 1 4 2
M  V30 4 1 5 4
M  V30 5 1 6 5
M  V30 6 1 7 6
M  V30 7 1 8 6
M  V30 8 1 9 4
M  V30 9 1 10 4
M  V30 10 1 11 5
M  V30 11 1 12 5
M  V30 12 1 13 6
M  V30 13 1 14 7
M  V30 14 1 15 7
M  V30 15 1 16 7
M  V30 16 1 17 8
M  V30 17 1 18 8
M  V30 18 1 19 8
M  V30 19 1 20 1
M  V30 20 1 21 1
M  V30 END BOND
M  V30 END CTAB
M  END
$$$$
R-group 1034 (11412-1)
     RDKit          3D

  0  0  0  0  0  0  0  0  0  0999 V3000
M  V30 BEGIN CTAB
M  V30 COUNTS 16 16 0 0 1
M  V30 BEGIN ATOM
M  V30 1 N 73.157100 54.458000 42.124700 0
M  V30 2 C 74.121900 55.485400 42.017600 0
M  V30 3 C 75.193200 55.830600 42.888000 0
M  V30 4 C 75.597700 55.258100 44.207300 0
M  V30 5 N 75.873500 56.857800 42.433600 0
M  V30 6 O 75.235200 57.257800 41.268400 0
M  V30 7 C 74.172700 56.455500 41.053500 0
M  V30 8 C 73.342300 56.777600 39.856700 0
M  V30 9 H 72.210600 54.707000 41.881000 0
M  V30 10 H 76.332800 54.466700 44.124800 0
M  V30 11 H 76.072200 56.024000 44.793500 0
M  V30 12 H 74.740600 54.897100 44.773600 0
M  V30 13 H 72.333200 56.380500 39.960100 0
M  V30 14 H 73.272500 57.856300 39.717700 0
M  V30 15 H 73.784800 56.357400 38.953300 0
M  V30 16 R 73.485900 53.158900 41.606300 0
M  V30 END ATOM
M  V30 BEGIN BOND
M  V30 1 1 2 1
M  V30 2 1 3 2
M  V30 3 1 4 3
M  V30 4 2 5 3
M  V30 5 1 6 5
M  V30 6 2 7 2
M  V30 7 1 7 6
M  V30 8 1 8 7
M  V30 9 1 9 1
M  V30 10 1 10 4
M  V30 11 1 11 4
M  V30 12 1 12 4
M  V30 13 1 13 8
M  V30 14 1 14 8
M  V30 15 1 15 8
M  V30 16 1 16 1
M  V30 END BOND
M  V30 END CTAB
M  END
$$$$
R-group 1035 (1411-2)
     RDKit          3D

  0  0  0  0  0  0  0  0  0  0999 V3000
M  V30 BEGIN CTAB
M  V30 COUNTS 10 9 0 0 1
M  V30 BEGIN ATOM
M  V30 1 C 74.663600 55.372100 42.085700 0 CFG=2
M  V30 2 O 75.272400 55.657900 43.322500 0
M  V30 3 C 73.815800 56.622500 41.752100 0
M  V30 4 O 73.272300 57.210900 42.924700 0
M  V30 5 H 75.479000 55.321600 41.366200 0
M  V30 6 H 74.452300 57.378100 41.289200 0
M  V30 7 H 73.032500 56.407300 41.027100 0
M  V30 8 H 75.069900 56.564600 43.513600 0
M  V30 9 H 72.853900 56.529700 43.433800 0
M  V30 10 R 73.929700 53.990400 42.111300 0
M  V30 END ATOM
M  V30 BEGIN BOND
M  V30 1 1 2 1
M  V30 2 1 3 1
M  V30 3 1 4 3
M  V30 4 1 1 5 CFG=3
M  V30 5 1 6 3
M  V30 6 1 7 3
M  V30 7 1 8 2
M  V30 8 1 9 4
M  V30 9 1 10 1
M  V30 END BOND
M  V30 END CTAB
M  END
$$$$
R-group 1036 (42514-1)
     RDKit          3D

  0  0  0  0  0  0  0  0  0  0999 V3000
M  V30 BEGIN CTAB
M  V30 COUNTS 13 12 0 0 1
M  V30 BEGIN ATOM
M  V30 1 N 73.672500 54.997100 42.207900 0
M  V30 2 C 74.369600 55.949100 41.575300 0
M  V30 3 O 75.398100 55.758400 40.938500 0
M  V30 4 C 73.735200 57.334400 41.579100 0
M  V30 5 C 73.251200 57.686100 40.163900 0
M  V30 6 C 72.190600 56.777100 39.690400 0
M  V30 7 N 71.359200 56.056600 39.324700 0
M  V30 8 H 74.472200 58.057900 41.916000 0
M  V30 9 H 72.903400 57.382700 42.284200 0
M  V30 10 H 74.071100 57.649800 39.445500 0
M  V30 11 H 72.872400 58.706200 40.145500 0
M  V30 12 H 72.919700 55.324700 42.798300 0
M  V30 13 R 73.628200 53.554600 41.978800 0
M  V30 END ATOM
M  V30 BEGIN BOND
M  V30 1 1 2 1
M  V30 2 2 3 2
M  V30 3 1 4 2
M  V30 4 1 5 4
M  V30 5 1 6 5
M  V30 6 3 7 6
M  V30 7 1 8 4
M  V30 8 1 9 4
M  V30 9 1 10 5
M  V30 10 1 11 5
M  V30 11 1 12 1
M  V30 12 1 13 1
M  V30 END BOND
M  V30 END CTAB
M  END
$$$$
R-group 1037 (6598-2)
     RDKit          3D

  0  0  0  0  0  0  0  0  0  0999 V3000
M  V30 BEGIN CTAB
M  V30 COUNTS 12 11 0 0 1
M  V30 BEGIN ATOM
M  V30 1 C 73.392200 57.676900 43.322300 0
M  V30 2 C 73.392500 56.150900 43.235200 0
M  V30 3 S 74.072200 55.590700 41.635500 0 CFG=2
M  V30 4 N 75.604700 55.803200 41.777600 0
M  V30 5 O 73.344300 56.226500 40.524800 0
M  V30 6 H 72.872500 58.029400 44.210300 0
M  V30 7 H 74.413100 58.058300 43.331400 0
M  V30 8 H 72.883800 58.114400 42.462300 0
M  V30 9 H 72.377400 55.769600 43.326200 0
M  V30 10 H 73.980300 55.658000 44.013700 0
M  V30 11 H 76.126000 55.536800 40.939800 0
M  V30 12 R 73.634100 53.768800 41.737400 0
M  V30 END ATOM
M  V30 BEGIN BOND
M  V30 1 1 2 1
M  V30 2 1 3 2
M  V30 3 2 4 3
M  V30 4 2 5 3
M  V30 5 1 6 1
M  V30 6 1 7 1
M  V30 7 1 8 1
M  V30 8 1 9 2
M  V30 9 1 10 2
M  V30 10 1 11 4
M  V30 11 1 3 12 CFG=3
M  V30 END BOND
M  V30 END CTAB
M  END
$$$$
R-group 1038 (12989-1)
     RDKit          3D

  0  0  0  0  0  0  0  0  0  0999 V3000
M  V30 BEGIN CTAB
M  V30 COUNTS 13 13 0 0 1
M  V30 BEGIN ATOM
M  V30 1 C 74.075500 54.780600 42.042900 0
M  V30 2 C 74.872200 55.503200 42.878900 0
M  V30 3 C 74.677300 56.856000 42.524200 0
M  V30 4 C 73.778100 56.860600 41.494000 0
M  V30 5 C 72.945500 57.892300 40.811300 0
M  V30 6 O 72.472200 58.857900 41.724700 0
M  V30 7 O 73.521900 55.591000 41.113800 0
M  V30 8 H 75.458600 55.123300 43.702000 0
M  V30 9 H 75.087700 57.673600 43.072800 0
M  V30 10 H 73.474300 58.352700 39.980000 0
M  V30 11 H 72.072700 57.416300 40.361400 0
M  V30 12 H 73.215700 59.341600 42.052300 0
M  V30 13 R 73.670000 53.353800 41.963000 0
M  V30 END ATOM
M  V30 BEGIN BOND
M  V30 1 2 2 1
M  V30 2 1 3 2
M  V30 3 2 4 3
M  V30 4 1 5 4
M  V30 5 1 6 5
M  V30 6 1 7 1
M  V30 7 1 7 4
M  V30 8 1 8 2
M  V30 9 1 9 3
M  V30 10 1 10 5
M  V30 11 1 11 5
M  V30 12 1 12 6
M  V30 13 1 13 1
M  V30 END BOND
M  V30 END CTAB
M  END
$$$$
R-group 1039 (11035-1)
     RDKit          3D

  0  0  0  0  0  0  0  0  0  0999 V3000
M  V30 BEGIN CTAB
M  V30 COUNTS 12 11 0 0 1
M  V30 BEGIN ATOM
M  V30 1 C 73.607100 55.062100 42.222900 0
M  V30 2 C 75.050400 55.559300 42.112100 0
M  V30 3 F 75.672600 55.378700 43.277600 0
M  V30 4 F 75.674200 54.893300 41.150700 0
M  V30 5 C 75.140700 57.031000 41.735600 0
M  V30 6 O 76.466300 57.258100 41.324700 0
M  V30 7 H 73.009500 55.561200 41.462200 0
M  V30 8 H 73.204000 55.404600 43.175100 0
M  V30 9 H 74.476800 57.270800 40.903400 0
M  V30 10 H 74.867600 57.656300 42.583300 0
M  V30 11 H 76.671200 56.631000 40.644200 0
M  V30 12 R 73.409500 53.535900 42.066300 0
M  V30 END ATOM
M  V30 BEGIN BOND
M  V30 1 1 2 1
M  V30 2 1 3 2
M  V30 3 1 4 2
M  V30 4 1 5 2
M  V30 5 1 6 5
M  V30 6 1 7 1
M  V30 7 1 8 1
M  V30 8 1 9 5
M  V30 9 1 10 5
M  V30 10 1 11 6
M  V30 11 1 12 1
M  V30 END BOND
M  V30 END CTAB
M  END
$$$$
R-group 1040 (840-1)
     RDKit          3D

  0  0  0  0  0  0  0  0  0  0999 V3000
M  V30 BEGIN CTAB
M  V30 COUNTS 11 10 0 0 1
M  V30 BEGIN ATOM
M  V30 1 C 73.420900 57.655900 43.265900 0
M  V30 2 C 73.376400 56.125700 43.225000 0
M  V30 3 S 74.074800 55.493200 41.655600 0
M  V30 4 O 75.526700 55.689800 41.725600 0
M  V30 5 O 73.344300 56.088400 40.524700 0
M  V30 6 H 72.872600 58.037000 44.125500 0
M  V30 7 H 74.448300 58.017600 43.324200 0
M  V30 8 H 72.964600 58.086400 42.373700 0
M  V30 9 H 72.353300 55.767100 43.324700 0
M  V30 10 H 73.945100 55.658100 44.030300 0
M  V30 11 R 73.660700 53.679900 41.791700 0
M  V30 END ATOM
M  V30 BEGIN BOND
M  V30 1 1 2 1
M  V30 2 1 3 2
M  V30 3 2 4 3
M  V30 4 2 5 3
M  V30 5 1 6 1
M  V30 6 1 7 1
M  V30 7 1 8 1
M  V30 8 1 9 2
M  V30 9 1 10 2
M  V30 10 1 11 3
M  V30 END BOND
M  V30 END CTAB
M  END
$$$$
R-group 1041 (6796-1)
     RDKit          3D

  0  0  0  0  0  0  0  0  0  0999 V3000
M  V30 BEGIN CTAB
M  V30 COUNTS 7 6 0 0 1
M  V30 BEGIN ATOM
M  V30 1 O 73.417900 54.708900 41.891300 0
M  V30 2 C 74.484500 55.330600 41.207500 0
M  V30 3 C 75.146500 56.191500 42.160700 0
M  V30 4 N 75.672700 56.858100 42.925000 0
M  V30 5 H 74.136900 55.899200 40.346000 0
M  V30 6 H 75.276900 54.655300 40.909400 0
M  V30 7 R 73.370400 53.301000 41.807100 0
M  V30 END ATOM
M  V30 BEGIN BOND
M  V30 1 1 2 1
M  V30 2 1 3 2
M  V30 3 3 4 3
M  V30 4 1 5 2
M  V30 5 1 6 2
M  V30 6 1 7 1
M  V30 END BOND
M  V30 END CTAB
M  END
$$$$
R-group 1042 (16947-1)
     RDKit          3D

  0  0  0  0  0  0  0  0  0  0999 V3000
M  V30 BEGIN CTAB
M  V30 COUNTS 14 14 0 0 1
M  V30 BEGIN ATOM
M  V30 1 C 73.281200 54.758400 42.021300 0
M  V30 2 N 74.582200 55.398400 41.975900 0
M  V30 3 C 75.167200 55.542300 43.300900 0
M  V30 4 C 75.697400 56.858200 42.779400 0
M  V30 5 F 76.867300 56.801900 42.125000 0
M  V30 6 F 75.671300 57.790400 43.723600 0
M  V30 7 C 74.485500 56.846600 41.855400 0
M  V30 8 H 72.715200 55.172500 41.187400 0
M  V30 9 H 72.729100 55.016000 42.924900 0
M  V30 10 H 74.392400 55.656100 44.064200 0
M  V30 11 H 75.904700 54.782300 43.538700 0
M  V30 12 H 74.646900 57.174800 40.825900 0
M  V30 13 H 73.567300 57.218900 42.314400 0
M  V30 14 R 73.356600 53.234500 41.819500 0
M  V30 END ATOM
M  V30 BEGIN BOND
M  V30 1 1 2 1
M  V30 2 1 3 2
M  V30 3 1 4 3
M  V30 4 1 5 4
M  V30 5 1 6 4
M  V30 6 1 7 2
M  V30 7 1 7 4
M  V30 8 1 8 1
M  V30 9 1 9 1
M  V30 10 1 10 3
M  V30 11 1 11 3
M  V30 12 1 12 7
M  V30 13 1 13 7
M  V30 14 1 14 1
M  V30 END BOND
M  V30 END CTAB
M  END
$$$$
R-group 1043 (10316-1)
     RDKit          3D

  0  0  0  0  0  0  0  0  0  0999 V3000
M  V30 BEGIN CTAB
M  V30 COUNTS 18 17 0 0 1
M  V30 BEGIN ATOM
M  V30 1 C 73.623900 56.729100 39.299900 0
M  V30 2 C 72.876600 56.547700 40.618400 0
M  V30 3 C 73.763900 56.237600 41.854600 0
M  V30 4 C 74.900700 57.258700 41.899800 0
M  V30 5 C 73.007100 56.328100 43.205800 0
M  V30 6 O 74.463000 55.003400 41.724600 0
M  V30 7 H 72.882700 56.858100 38.521800 0
M  V30 8 H 74.238500 55.866100 39.050800 0
M  V30 9 H 74.252000 57.620600 39.293500 0
M  V30 10 H 72.332200 57.473600 40.800900 0
M  V30 11 H 72.140000 55.769300 40.455200 0
M  V30 12 H 74.472000 58.240800 41.726700 0
M  V30 13 H 75.425700 57.257500 42.856000 0
M  V30 14 H 75.645600 57.082900 41.123300 0
M  V30 15 H 72.667200 57.346600 43.397400 0
M  V30 16 H 72.145600 55.669300 43.321600 0
M  V30 17 H 73.672000 56.057400 44.018800 0
M  V30 18 R 73.804600 53.748000 41.868200 0
M  V30 END ATOM
M  V30 BEGIN BOND
M  V30 1 1 2 1
M  V30 2 1 3 2
M  V30 3 1 4 3
M  V30 4 1 5 3
M  V30 5 1 6 3
M  V30 6 1 7 1
M  V30 7 1 8 1
M  V30 8 1 9 1
M  V30 9 1 10 2
M  V30 10 1 11 2
M  V30 11 1 12 4
M  V30 12 1 13 4
M  V30 13 1 14 4
M  V30 14 1 15 5
M  V30 15 1 16 5
M  V30 16 1 17 5
M  V30 17 1 18 6
M  V30 END BOND
M  V30 END CTAB
M  END
$$$$
R-group 1044 (7570-1)
     RDKit          3D

  0  0  0  0  0  0  0  0  0  0999 V3000
M  V30 BEGIN CTAB
M  V30 COUNTS 13 12 0 0 1
M  V30 BEGIN ATOM
M  V30 1 O 73.691300 54.901400 42.320800 0
M  V30 2 C 74.991300 55.467000 42.159300 0
M  V30 3 C 74.906500 56.993300 42.283200 0
M  V30 4 C 73.633000 57.562000 41.654500 0
M  V30 5 C 73.368300 56.954500 40.346300 0
M  V30 6 N 73.168200 56.458200 39.324700 0
M  V30 7 H 75.417400 55.214200 41.194000 0
M  V30 8 H 75.671300 55.085200 42.917800 0
M  V30 9 H 75.786800 57.430600 41.809800 0
M  V30 10 H 74.940200 57.291300 43.326100 0
M  V30 11 H 73.672100 58.643700 41.561900 0
M  V30 12 H 72.781000 57.337500 42.292900 0
M  V30 13 R 73.492300 53.511600 42.032500 0
M  V30 END ATOM
M  V30 BEGIN BOND
M  V30 1 1 2 1
M  V30 2 1 3 2
M  V30 3 1 4 3
M  V30 4 1 5 4
M  V30 5 3 6 5
M  V30 6 1 7 2
M  V30 7 1 8 2
M  V30 8 1 9 3
M  V30 9 1 10 3
M  V30 10 1 11 4
M  V30 11 1 12 4
M  V30 12 1 13 1
M  V30 END BOND
M  V30 END CTAB
M  END
$$$$
R-group 1045 (37638-1)
     RDKit          3D

  0  0  0  0  0  0  0  0  0  0999 V3000
M  V30 BEGIN CTAB
M  V30 COUNTS 12 12 0 0 1
M  V30 BEGIN ATOM
M  V30 1 C 73.788600 54.472300 41.773000 0
M  V30 2 C 73.442700 55.364500 40.805700 0
M  V30 3 C 73.721500 56.589000 41.445600 0
M  V30 4 C 73.272300 57.925400 41.087000 0
M  V30 5 F 73.272100 58.095300 39.762600 0
M  V30 6 F 72.132900 58.334900 41.631800 0
M  V30 7 N 74.466400 56.470500 42.525000 0
M  V30 8 N 74.483700 55.162600 42.730400 0
M  V30 9 H 72.884400 55.192400 39.900900 0
M  V30 10 H 74.051300 58.519600 41.519000 0
M  V30 11 H 74.891300 54.760500 43.565100 0
M  V30 12 R 73.502000 53.029100 41.870500 0
M  V30 END ATOM
M  V30 BEGIN BOND
M  V30 1 2 2 1
M  V30 2 1 3 2
M  V30 3 1 4 3
M  V30 4 1 5 4
M  V30 5 1 6 4
M  V30 6 2 7 3
M  V30 7 1 8 1
M  V30 8 1 8 7
M  V30 9 1 9 2
M  V30 10 1 10 4
M  V30 11 1 11 8
M  V30 12 1 12 1
M  V30 END BOND
M  V30 END CTAB
M  END
$$$$
R-group 1046 (1214-1)
     RDKit          3D

  0  0  0  0  0  0  0  0  0  0999 V3000
M  V30 BEGIN CTAB
M  V30 COUNTS 13 12 0 0 1
M  V30 BEGIN ATOM
M  V30 1 S 74.840700 55.718400 41.722400 0
M  V30 2 O 75.457800 56.097800 42.997200 0
M  V30 3 O 75.672300 55.647600 40.524800 0
M  V30 4 N 73.672200 56.914500 41.326600 0
M  V30 5 C 73.188600 57.896200 42.298600 0
M  V30 6 C 73.243200 57.127800 39.936700 0
M  V30 7 H 72.121900 58.059600 42.165200 0
M  V30 8 H 73.371600 57.570200 43.322900 0
M  V30 9 H 73.672300 58.854900 42.124700 0
M  V30 10 H 72.157100 57.197500 39.882100 0
M  V30 11 H 73.672200 58.049800 39.542900 0
M  V30 12 H 73.561400 56.310300 39.290700 0
M  V30 13 R 73.890300 54.106200 41.958300 0
M  V30 END ATOM
M  V30 BEGIN BOND
M  V30 1 2 2 1
M  V30 2 2 3 1
M  V30 3 1 4 1
M  V30 4 1 5 4
M  V30 5 1 6 4
M  V30 6 1 7 5
M  V30 7 1 8 5
M  V30 8 1 9 5
M  V30 9 1 10 6
M  V30 10 1 11 6
M  V30 11 1 12 6
M  V30 12 1 13 1
M  V30 END BOND
M  V30 END CTAB
M  END
$$$$
R-group 1047 (27109-1)
     RDKit          3D

  0  0  0  0  0  0  0  0  0  0999 V3000
M  V30 BEGIN CTAB
M  V30 COUNTS 16 15 0 0 1
M  V30 BEGIN ATOM
M  V30 1 N 73.732500 55.013400 42.114100 0
M  V30 2 C 74.680000 55.637500 41.397000 0
M  V30 3 O 75.272500 55.047700 40.525000 0
M  V30 4 C 75.091500 57.078000 41.713700 0
M  V30 5 C 75.924300 57.022900 42.969600 0
M  V30 6 C 76.057100 57.654400 40.651800 0
M  V30 7 C 73.855700 57.860900 41.852800 0
M  V30 8 N 72.872100 58.455200 41.957500 0
M  V30 9 H 75.415100 56.449600 43.727100 0
M  V30 10 H 76.836400 56.491900 42.709900 0
M  V30 11 H 76.176200 58.022200 43.325600 0
M  V30 12 H 75.526400 57.657100 39.712800 0
M  V30 13 H 76.472200 58.623300 40.916300 0
M  V30 14 H 76.912800 57.001900 40.492800 0
M  V30 15 H 73.258800 55.523100 42.847400 0
M  V30 16 R 73.475300 53.569100 42.059500 0
M  V30 END ATOM
M  V30 BEGIN BOND
M  V30 1 1 2 1
M  V30 2 2 3 2
M  V30 3 1 4 2
M  V30 4 1 5 4
M  V30 5 1 6 4
M  V30 6 1 7 4
M  V30 7 3 8 7
M  V30 8 1 9 5
M  V30 9 1 10 5
M  V30 10 1 11 5
M  V30 11 1 12 6
M  V30 12 1 13 6
M  V30 13 1 14 6
M  V30 14 1 15 1
M  V30 15 1 16 1
M  V30 END BOND
M  V30 END CTAB
M  END
$$$$
R-group 1048 (43067-1)
     RDKit          3D

  0  0  0  0  0  0  0  0  0  0999 V3000
M  V30 BEGIN CTAB
M  V30 COUNTS 16 17 0 0 1
M  V30 BEGIN ATOM
M  V30 1 N 74.290100 54.966700 41.924100 0
M  V30 2 C 74.449400 55.728900 43.165600 0 CFG=1
M  V30 3 C 75.465400 56.867200 42.940600 0
M  V30 4 O 75.481800 57.229200 41.547400 0
M  V30 5 C 74.181700 57.225400 40.954400 0
M  V30 6 C 73.381200 56.022300 41.469000 0 CFG=2
M  V30 7 C 72.969900 56.123300 42.962900 0
M  V30 8 H 74.608000 55.141100 44.065100 0
M  V30 9 H 75.201400 57.735300 43.534600 0
M  V30 10 H 76.464300 56.578000 43.252800 0
M  V30 11 H 74.302100 57.194100 39.877000 0
M  V30 12 H 73.665900 58.151800 41.193000 0
M  V30 13 H 72.636700 55.670200 40.764300 0
M  V30 14 H 72.714400 57.128800 43.308500 0
M  V30 15 H 72.229400 55.406200 43.324700 0
M  V30 16 R 73.747900 53.590200 42.008000 0
M  V30 END ATOM
M  V30 BEGIN BOND
M  V30 1 1 2 1
M  V30 2 1 3 2
M  V30 3 1 4 3
M  V30 4 1 5 4
M  V30 5 1 6 1
M  V30 6 1 6 5
M  V30 7 1 7 2
M  V30 8 1 7 6
M  V30 9 1 2 8 CFG=1
M  V30 10 1 9 3
M  V30 11 1 10 3
M  V30 12 1 11 5
M  V30 13 1 12 5
M  V30 14 1 6 13 CFG=3
M  V30 15 1 14 7
M  V30 16 1 15 7
M  V30 17 1 16 1
M  V30 END BOND
M  V30 END CTAB
M  END
$$$$
R-group 1049 (20625-1)
     RDKit          3D

  0  0  0  0  0  0  0  0  0  0999 V3000
M  V30 BEGIN CTAB
M  V30 COUNTS 13 13 0 0 1
M  V30 BEGIN ATOM
M  V30 1 N 73.247400 54.434800 42.125600 0
M  V30 2 C 74.071900 55.475300 42.040700 0
M  V30 3 O 75.130600 55.470600 41.410900 0
M  V30 4 C 73.534400 56.639100 42.774300 0 CFG=1
M  V30 5 C 74.471900 57.795000 42.870200 0
M  V30 6 C 73.272500 57.883000 41.964700 0
M  V30 7 F 73.463400 57.836100 40.594400 0
M  V30 8 F 72.234800 58.710500 42.357400 0
M  V30 9 H 72.876300 56.449500 43.620900 0
M  V30 10 H 74.457100 58.456200 43.724700 0
M  V30 11 H 75.456700 57.658000 42.425800 0
M  V30 12 H 72.443300 54.555800 42.728400 0
M  V30 13 R 73.473000 53.101800 41.661100 0
M  V30 END ATOM
M  V30 BEGIN BOND
M  V30 1 1 2 1
M  V30 2 2 3 2
M  V30 3 1 4 2
M  V30 4 1 5 4
M  V30 5 1 6 4
M  V30 6 1 6 5
M  V30 7 1 7 6
M  V30 8 1 8 6
M  V30 9 1 4 9 CFG=1
M  V30 10 1 10 5
M  V30 11 1 11 5
M  V30 12 1 12 1
M  V30 13 1 13 1
M  V30 END BOND
M  V30 END CTAB
M  END
$$$$
R-group 1050 (462-1)
     RDKit          3D

  0  0  0  0  0  0  0  0  0  0999 V3000
M  V30 BEGIN CTAB
M  V30 COUNTS 9 8 0 0 1
M  V30 BEGIN ATOM
M  V30 1 O 74.023800 54.987500 41.766200 0
M  V30 2 C 73.578900 55.830000 42.807300 0
M  V30 3 C 73.974200 57.257500 42.443600 0
M  V30 4 F 73.272300 57.658000 41.385300 0
M  V30 5 H 72.495000 55.749800 42.936700 0
M  V30 6 H 74.069000 55.532500 43.727400 0
M  V30 7 H 73.767100 57.950500 43.259300 0
M  V30 8 H 75.033000 57.317700 42.191700 0
M  V30 9 R 73.643200 53.629600 41.908000 0
M  V30 END ATOM
M  V30 BEGIN BOND
M  V30 1 1 2 1
M  V30 2 1 3 2
M  V30 3 1 4 3
M  V30 4 1 5 2
M  V30 5 1 6 2
M  V30 6 1 7 3
M  V30 7 1 8 3
M  V30 8 1 9 1
M  V30 END BOND
M  V30 END CTAB
M  END
$$$$
R-group 1051 (25840-2)
     RDKit          3D

  0  0  0  0  0  0  0  0  0  0999 V3000
M  V30 BEGIN CTAB
M  V30 COUNTS 17 17 0 0 1
M  V30 BEGIN ATOM
M  V30 1 C 74.674300 55.244100 41.673500 0 CFG=2
M  V30 2 C 75.078500 55.950400 42.986300 0
M  V30 3 N 74.467200 57.256700 42.924700 0
M  V30 4 C 73.672100 57.417600 41.897700 0
M  V30 5 O 72.872600 58.341600 41.731300 0
M  V30 6 C 73.835800 56.299400 40.921500 0 CFG=1
M  V30 7 C 74.469600 56.879300 39.665800 0
M  V30 8 O 74.072000 56.058000 38.629900 0
M  V30 9 H 75.600000 55.074400 41.124000 0
M  V30 10 H 74.696500 55.449800 43.873200 0
M  V30 11 H 76.159900 56.053200 43.083000 0
M  V30 12 H 72.840000 55.939800 40.697700 0
M  V30 13 H 74.071500 57.864000 39.412200 0
M  V30 14 H 75.556100 56.950300 39.725500 0
M  V30 15 H 74.512200 57.908100 43.694400 0
M  V30 16 H 73.960700 56.630200 37.877700 0
M  V30 17 R 73.946000 53.870300 41.857000 0
M  V30 END ATOM
M  V30 BEGIN BOND
M  V30 1 1 2 1
M  V30 2 1 3 2
M  V30 3 1 4 3
M  V30 4 2 5 4
M  V30 5 1 6 1
M  V30 6 1 6 4
M  V30 7 1 7 6
M  V30 8 1 8 7
M  V30 9 1 1 9 CFG=3
M  V30 10 1 10 2
M  V30 11 1 11 2
M  V30 12 1 6 12 CFG=3
M  V30 13 1 13 7
M  V30 14 1 14 7
M  V30 15 1 15 3
M  V30 16 1 16 8
M  V30 17 1 17 1
M  V30 END BOND
M  V30 END CTAB
M  END
$$$$
R-group 1052 (17157-1)
     RDKit          3D

  0  0  0  0  0  0  0  0  0  0999 V3000
M  V30 BEGIN CTAB
M  V30 COUNTS 16 16 0 0 1
M  V30 BEGIN ATOM
M  V30 1 C 73.567700 54.883600 42.762700 0
M  V30 2 C 74.205000 56.046500 42.059000 0 CFG=2
M  V30 3 C 73.762000 57.427000 42.444400 0
M  V30 4 C 73.523400 56.929700 41.036800 0 CFG=1
M  V30 5 C 74.299500 57.256600 39.792300 0
M  V30 6 O 74.071100 56.177200 38.924800 0
M  V30 7 H 72.514200 55.111600 42.924700 0
M  V30 8 H 74.072300 54.902200 43.724600 0
M  V30 9 H 75.281500 55.925600 41.939700 0
M  V30 10 H 72.882500 57.518500 43.081900 0
M  V30 11 H 74.579000 58.057900 42.721200 0
M  V30 12 H 72.472100 56.852900 40.824600 0
M  V30 13 H 73.907800 58.156600 39.324000 0
M  V30 14 H 75.366800 57.353500 39.998700 0
M  V30 15 H 74.247100 55.377600 39.394000 0
M  V30 16 R 73.686200 53.486600 42.095400 0
M  V30 END ATOM
M  V30 BEGIN BOND
M  V30 1 1 2 1
M  V30 2 1 3 2
M  V30 3 1 4 2
M  V30 4 1 4 3
M  V30 5 1 5 4
M  V30 6 1 6 5
M  V30 7 1 7 1
M  V30 8 1 8 1
M  V30 9 1 2 9 CFG=3
M  V30 10 1 10 3
M  V30 11 1 11 3
M  V30 12 1 4 12 CFG=3
M  V30 13 1 13 5
M  V30 14 1 14 5
M  V30 15 1 15 6
M  V30 16 1 16 1
M  V30 END BOND
M  V30 END CTAB
M  END
$$$$
R-group 1053 (22950-7)
     RDKit          3D

  0  0  0  0  0  0  0  0  0  0999 V3000
M  V30 BEGIN CTAB
M  V30 COUNTS 24 25 0 0 1
M  V30 BEGIN ATOM
M  V30 1 O 73.710900 54.372100 42.123700 0
M  V30 2 C 74.915900 54.901800 41.560300 0 CFG=2
M  V30 3 C 75.618600 55.703600 42.662800 0
M  V30 4 C 74.748400 56.880600 43.127100 0
M  V30 5 O 74.249700 57.645000 42.059000 0
M  V30 6 C 73.623400 56.901100 41.092200 0 CFG=1
M  V30 7 C 72.978000 57.657700 39.973700 0
M  V30 8 C 72.768800 56.574600 38.927100 0
M  V30 9 C 73.552800 55.357300 39.364800 0
M  V30 10 C 74.500500 55.863600 40.451900 0 CFG=2
M  V30 11 H 75.614600 54.165300 41.175900 0
M  V30 12 H 75.829900 55.075700 43.528500 0
M  V30 13 H 76.568100 56.067300 42.281000 0
M  V30 14 H 73.891400 56.521100 43.703900 0
M  V30 15 H 75.342600 57.563200 43.724500 0
M  V30 16 H 72.872300 56.393100 41.644900 0
M  V30 17 H 72.060200 58.083100 40.351900 0
M  V30 18 H 73.618200 58.441300 39.564500 0
M  V30 19 H 71.709200 56.372000 38.749100 0
M  V30 20 H 73.272100 56.857700 38.033400 0
M  V30 21 H 74.067800 54.890500 38.525000 0
M  V30 22 H 72.819000 54.670100 39.768500 0
M  V30 23 H 75.375900 56.335200 39.999200 0
M  V30 24 R 73.528000 52.981800 42.199000 0
M  V30 END ATOM
M  V30 BEGIN BOND
M  V30 1 1 2 1
M  V30 2 1 3 2
M  V30 3 1 4 3
M  V30 4 1 5 4
M  V30 5 1 6 5
M  V30 6 1 7 6
M  V30 7 1 8 7
M  V30 8 1 9 8
M  V30 9 1 10 2
M  V30 10 1 10 6
M  V30 11 1 10 9
M  V30 12 1 2 11 CFG=3
M  V30 13 1 12 3
M  V30 14 1 13 3
M  V30 15 1 14 4
M  V30 16 1 15 4
M  V30 17 1 6 16 CFG=1
M  V30 18 1 17 7
M  V30 19 1 18 7
M  V30 20 1 19 8
M  V30 21 1 20 8
M  V30 22 1 21 9
M  V30 23 1 22 9
M  V30 24 1 10 23 CFG=3
M  V30 25 1 24 1
M  V30 END BOND
M  V30 END CTAB
M  END
$$$$
R-group 1054 (4659-1)
     RDKit          3D

  0  0  0  0  0  0  0  0  0  0999 V3000
M  V30 BEGIN CTAB
M  V30 COUNTS 18 17 0 0 1
M  V30 BEGIN ATOM
M  V30 1 C 72.517200 56.597600 39.557300 0
M  V30 2 O 73.272300 57.658000 40.103800 0
M  V30 3 C 73.472000 57.772200 41.505700 0
M  V30 4 C 74.819600 57.167500 41.959300 0
M  V30 5 C 74.954200 55.667000 41.705200 0
M  V30 6 C 73.756500 54.906400 42.278200 0
M  V30 7 H 72.255300 56.858100 38.527800 0
M  V30 8 H 73.108900 55.690200 39.506400 0
M  V30 9 H 71.595800 56.415000 40.106200 0
M  V30 10 H 72.621000 57.412800 42.078900 0
M  V30 11 H 73.498600 58.838600 41.725100 0
M  V30 12 H 74.958400 57.366500 43.023000 0
M  V30 13 H 75.641800 57.657900 41.441400 0
M  V30 14 H 75.887000 55.295300 42.124600 0
M  V30 15 H 75.027200 55.550100 40.632100 0
M  V30 16 H 72.872300 55.307900 41.834300 0
M  V30 17 H 73.673000 55.143300 43.326800 0
M  V30 18 R 73.635500 53.402100 42.051400 0
M  V30 END ATOM
M  V30 BEGIN BOND
M  V30 1 1 2 1
M  V30 2 1 3 2
M  V30 3 1 4 3
M  V30 4 1 5 4
M  V30 5 1 6 5
M  V30 6 1 7 1
M  V30 7 1 8 1
M  V30 8 1 9 1
M  V30 9 1 10 3
M  V30 10 1 11 3
M  V30 11 1 12 4
M  V30 12 1 13 4
M  V30 13 1 14 5
M  V30 14 1 15 5
M  V30 15 1 16 6
M  V30 16 1 17 6
M  V30 17 1 18 6
M  V30 END BOND
M  V30 END CTAB
M  END
$$$$
R-group 1055 (1431-2)
     RDKit          3D

  0  0  0  0  0  0  0  0  0  0999 V3000
M  V30 BEGIN CTAB
M  V30 COUNTS 12 11 0 0 1
M  V30 BEGIN ATOM
M  V30 1 C 73.813100 57.534400 43.127900 0
M  V30 2 C 73.575900 56.018500 43.168700 0
M  V30 3 C 74.066300 55.246100 41.922600 0 CFG=2
M  V30 4 C 73.633300 55.930000 40.691900 0
M  V30 5 N 73.292900 56.463600 39.724600 0
M  V30 6 H 73.271200 58.024300 43.935000 0
M  V30 7 H 73.470800 57.996000 42.203500 0
M  V30 8 H 74.872300 57.749000 43.255100 0
M  V30 9 H 74.072300 55.622300 44.051000 0
M  V30 10 H 72.508700 55.845900 43.317000 0
M  V30 11 H 75.153600 55.317500 41.886300 0
M  V30 12 R 73.678400 53.732300 41.949000 0
M  V30 END ATOM
M  V30 BEGIN BOND
M  V30 1 1 2 1
M  V30 2 1 3 2
M  V30 3 1 4 3
M  V30 4 3 5 4
M  V30 5 1 6 1
M  V30 6 1 7 1
M  V30 7 1 8 1
M  V30 8 1 9 2
M  V30 9 1 10 2
M  V30 10 1 3 11 CFG=1
M  V30 11 1 12 3
M  V30 END BOND
M  V30 END CTAB
M  END
$$$$
R-group 1056 (11270-1)
     RDKit          3D

  0  0  0  0  0  0  0  0  0  0999 V3000
M  V30 BEGIN CTAB
M  V30 COUNTS 19 19 0 0 1
M  V30 BEGIN ATOM
M  V30 1 C 73.731400 54.743300 41.973900 0 CFG=1
M  V30 2 C 75.205300 55.186500 42.165500 0
M  V30 3 C 75.284200 56.694000 42.281200 0
M  V30 4 C 74.561000 57.344300 41.110700 0 CFG=1
M  V30 5 C 75.273400 57.258100 39.754700 0
M  V30 6 O 73.272200 56.866700 40.924200 0
M  V30 7 C 73.144800 55.474500 40.735900 0
M  V30 8 H 73.189300 55.095600 42.852600 0
M  V30 9 H 75.670400 54.775100 43.059300 0
M  V30 10 H 75.804100 54.860900 41.317000 0
M  V30 11 H 74.806400 57.006900 43.212600 0
M  V30 12 H 76.321100 57.033700 42.335500 0
M  V30 13 H 74.344900 58.353700 41.428600 0
M  V30 14 H 76.278800 57.663400 39.837700 0
M  V30 15 H 75.339900 56.250600 39.365700 0
M  V30 16 H 74.735300 57.825900 38.995400 0
M  V30 17 H 73.625700 55.190300 39.808200 0
M  V30 18 H 72.093300 55.248200 40.524600 0
M  V30 19 R 73.531800 53.207500 41.924700 0
M  V30 END ATOM
M  V30 BEGIN BOND
M  V30 1 1 2 1
M  V30 2 1 3 2
M  V30 3 1 4 3
M  V30 4 1 5 4
M  V30 5 1 6 4
M  V30 6 1 7 1
M  V30 7 1 7 6
M  V30 8 1 1 8 CFG=1
M  V30 9 1 9 2
M  V30 10 1 10 2
M  V30 11 1 11 3
M  V30 12 1 12 3
M  V30 13 1 4 13 CFG=1
M  V30 14 1 14 5
M  V30 15 1 15 5
M  V30 16 1 16 5
M  V30 17 1 17 7
M  V30 18 1 18 7
M  V30 19 1 19 1
M  V30 END BOND
M  V30 END CTAB
M  END
$$$$
R-group 1057 (21092-1)
     RDKit          3D

  0  0  0  0  0  0  0  0  0  0999 V3000
M  V30 BEGIN CTAB
M  V30 COUNTS 18 18 0 0 1
M  V30 BEGIN ATOM
M  V30 1 C 72.878800 54.306500 41.904200 0
M  V30 2 N 73.906300 55.320600 41.576900 0
M  V30 3 C 74.872000 55.623500 42.498600 0
M  V30 4 O 74.946300 55.120100 43.608000 0
M  V30 5 C 75.956300 56.639500 42.184500 0
M  V30 6 C 75.377100 57.657900 41.243900 0
M  V30 7 C 74.864600 56.972700 39.990600 0
M  V30 8 C 73.795000 55.974300 40.387600 0
M  V30 9 O 72.865400 55.813100 39.598500 0
M  V30 10 H 71.943800 54.451200 41.365300 0
M  V30 11 H 72.559100 54.404900 42.924800 0
M  V30 12 H 76.291200 57.130800 43.100100 0
M  V30 13 H 76.818800 56.137700 41.741900 0
M  V30 14 H 74.498200 58.131200 41.723900 0
M  V30 15 H 76.162300 58.372800 40.979100 0
M  V30 16 H 75.670900 56.456800 39.486200 0
M  V30 17 H 74.448700 57.667000 39.267600 0
M  V30 18 R 73.299400 52.859200 41.602800 0
M  V30 END ATOM
M  V30 BEGIN BOND
M  V30 1 1 2 1
M  V30 2 1 3 2
M  V30 3 2 4 3
M  V30 4 1 5 3
M  V30 5 1 6 5
M  V30 6 1 7 6
M  V30 7 1 8 2
M  V30 8 1 8 7
M  V30 9 2 9 8
M  V30 10 1 10 1
M  V30 11 1 11 1
M  V30 12 1 12 5
M  V30 13 1 13 5
M  V30 14 1 14 6
M  V30 15 1 15 6
M  V30 16 1 16 7
M  V30 17 1 17 7
M  V30 18 1 18 1
M  V30 END BOND
M  V30 END CTAB
M  END
$$$$
R-group 1058 (158-1)
     RDKit          3D

  0  0  0  0  0  0  0  0  0  0999 V3000
M  V30 BEGIN CTAB
M  V30 COUNTS 6 5 0 0 1
M  V30 BEGIN ATOM
M  V30 1 C 74.748900 55.399900 42.332600 0
M  V30 2 O 74.072000 56.502200 41.771800 0
M  V30 3 H 74.851500 55.585800 43.401700 0
M  V30 4 H 75.759400 55.377000 41.924800 0
M  V30 5 H 74.059700 56.401800 40.831700 0
M  V30 6 R 74.023400 54.051400 42.090800 0
M  V30 END ATOM
M  V30 BEGIN BOND
M  V30 1 1 2 1
M  V30 2 1 3 1
M  V30 3 1 4 1
M  V30 4 1 5 2
M  V30 5 1 6 1
M  V30 END BOND
M  V30 END CTAB
M  END
$$$$
R-group 1059 (37962-1)
     RDKit          3D

  0  0  0  0  0  0  0  0  0  0999 V3000
M  V30 BEGIN CTAB
M  V30 COUNTS 20 20 0 0 1
M  V30 BEGIN ATOM
M  V30 1 C 74.208300 55.037700 41.587800 0 CFG=1
M  V30 2 C 73.525200 56.085100 40.693600 0
M  V30 3 C 73.830700 57.402700 41.410400 0 CFG=1
M  V30 4 C 72.871800 58.569000 41.177100 0
M  V30 5 C 74.011700 57.131200 42.895800 0 CFG=1
M  V30 6 O 72.872300 57.534100 43.617600 0
M  V30 7 C 74.130900 55.624200 42.980200 0 CFG=2
M  V30 8 O 75.272400 55.251800 43.724400 0
M  V30 9 H 75.260600 55.017500 41.299600 0
M  V30 10 H 73.957000 56.083300 39.695400 0
M  V30 11 H 72.460100 55.913600 40.524200 0
M  V30 12 H 74.829800 57.653300 41.048900 0
M  V30 13 H 71.841100 58.458700 41.491200 0
M  V30 14 H 73.221400 59.424400 41.728900 0
M  V30 15 H 72.874400 58.822600 40.152300 0
M  V30 16 H 74.891400 57.649300 43.288200 0
M  V30 17 H 73.188400 55.240800 43.323000 0
M  V30 18 H 72.891900 57.127100 44.469100 0
M  V30 19 H 75.040000 55.255500 44.642900 0
M  V30 20 R 73.636500 53.587300 41.578300 0
M  V30 END ATOM
M  V30 BEGIN BOND
M  V30 1 1 2 1
M  V30 2 1 3 2
M  V30 3 1 4 3
M  V30 4 1 5 3
M  V30 5 1 6 5
M  V30 6 1 7 1
M  V30 7 1 7 5
M  V30 8 1 8 7
M  V30 9 1 1 9 CFG=3
M  V30 10 1 10 2
M  V30 11 1 11 2
M  V30 12 1 3 12 CFG=3
M  V30 13 1 13 4
M  V30 14 1 14 4
M  V30 15 1 15 4
M  V30 16 1 5 16 CFG=1
M  V30 17 1 7 17 CFG=1
M  V30 18 1 18 6
M  V30 19 1 19 8
M  V30 20 1 20 1
M  V30 END BOND
M  V30 END CTAB
M  END
$$$$
R-group 1060 (22682-2)
     RDKit          3D

  0  0  0  0  0  0  0  0  0  0999 V3000
M  V30 BEGIN CTAB
M  V30 COUNTS 14 13 0 0 1
M  V30 BEGIN ATOM
M  V30 1 C 73.464200 54.914200 41.635500 0 CFG=1
M  V30 2 C 72.951700 55.542100 42.924700 0
M  V30 3 C 74.817400 55.466700 41.155200 0
M  V30 4 C 75.139200 56.858100 41.643400 0
M  V30 5 F 76.180800 57.257800 40.924700 0
M  V30 6 F 74.073800 57.654000 41.447800 0
M  V30 7 F 75.502500 56.857800 42.923400 0
M  V30 8 H 72.741300 55.250100 40.894700 0
M  V30 9 H 73.680600 55.422300 43.724000 0
M  V30 10 H 72.743200 56.607600 42.889400 0
M  V30 11 H 72.001600 55.109400 43.241400 0
M  V30 12 H 75.653900 54.818500 41.409100 0
M  V30 13 H 74.787400 55.527500 40.069100 0
M  V30 14 R 73.408300 53.365400 41.686200 0
M  V30 END ATOM
M  V30 BEGIN BOND
M  V30 1 1 2 1
M  V30 2 1 3 1
M  V30 3 1 4 3
M  V30 4 1 5 4
M  V30 5 1 6 4
M  V30 6 1 7 4
M  V30 7 1 1 8 CFG=3
M  V30 8 1 9 2
M  V30 9 1 10 2
M  V30 10 1 11 2
M  V30 11 1 12 3
M  V30 12 1 13 3
M  V30 13 1 14 1
M  V30 END BOND
M  V30 END CTAB
M  END
$$$$
R-group 1061 (7800-1)
     RDKit          3D

  0  0  0  0  0  0  0  0  0  0999 V3000
M  V30 BEGIN CTAB
M  V30 COUNTS 11 11 0 0 1
M  V30 BEGIN ATOM
M  V30 1 C 74.201900 54.843800 41.758800 0
M  V30 2 C 73.672200 55.725500 42.607300 0
M  V30 3 N 74.347800 56.857100 42.378800 0
M  V30 4 C 74.057800 58.063300 43.044700 0
M  V30 5 N 75.329400 56.702700 41.463900 0
M  V30 6 N 75.267800 55.462700 41.088600 0
M  V30 7 H 72.863900 55.654000 43.323500 0
M  V30 8 H 73.148400 57.955100 43.640500 0
M  V30 9 H 74.871700 58.311600 43.724600 0
M  V30 10 H 73.866200 58.852600 42.310400 0
M  V30 11 R 73.771600 53.431100 41.702000 0
M  V30 END ATOM
M  V30 BEGIN BOND
M  V30 1 2 2 1
M  V30 2 1 3 2
M  V30 3 1 4 3
M  V30 4 1 5 3
M  V30 5 1 6 1
M  V30 6 2 6 5
M  V30 7 1 7 2
M  V30 8 1 8 4
M  V30 9 1 9 4
M  V30 10 1 10 4
M  V30 11 1 11 1
M  V30 END BOND
M  V30 END CTAB
M  END
$$$$
R-group 1062 (24322-2)
     RDKit          3D

  0  0  0  0  0  0  0  0  0  0999 V3000
M  V30 BEGIN CTAB
M  V30 COUNTS 19 18 0 0 1
M  V30 BEGIN ATOM
M  V30 1 C 72.297100 58.857100 41.588000 0
M  V30 2 C 73.036700 57.834600 40.706600 0
M  V30 3 C 74.358800 57.300100 41.265100 0
M  V30 4 C 74.340100 56.768700 42.684700 0 CFG=2
M  V30 5 O 75.676100 56.460000 42.936200 0
M  V30 6 C 73.590400 55.476600 42.925100 0
M  V30 7 O 73.712400 54.698500 41.763000 0
M  V30 8 H 71.362400 59.175000 41.130100 0
M  V30 9 H 72.071300 58.455900 42.572300 0
M  V30 10 H 72.872400 59.751800 41.750400 0
M  V30 11 H 73.264300 58.276900 39.736000 0
M  V30 12 H 72.380100 56.987000 40.520800 0
M  V30 13 H 75.121900 58.058000 41.324700 0
M  V30 14 H 74.759400 56.556600 40.573800 0
M  V30 15 H 74.031100 57.540900 43.387500 0
M  V30 16 H 72.541900 55.658000 43.159600 0
M  V30 17 H 74.072300 55.005600 43.781800 0
M  V30 18 H 75.729300 56.009500 43.762900 0
M  V30 19 R 73.442900 53.325800 41.904300 0
M  V30 END ATOM
M  V30 BEGIN BOND
M  V30 1 1 2 1
M  V30 2 1 3 2
M  V30 3 1 4 3
M  V30 4 1 5 4
M  V30 5 1 6 4
M  V30 6 1 7 6
M  V30 7 1 8 1
M  V30 8 1 9 1
M  V30 9 1 10 1
M  V30 10 1 11 2
M  V30 11 1 12 2
M  V30 12 1 13 3
M  V30 13 1 14 3
M  V30 14 1 4 15 CFG=1
M  V30 15 1 16 6
M  V30 16 1 17 6
M  V30 17 1 18 5
M  V30 18 1 19 7
M  V30 END BOND
M  V30 END CTAB
M  END
$$$$
R-group 1063 (40163-2)
     RDKit          3D

  0  0  0  0  0  0  0  0  0  0999 V3000
M  V30 BEGIN CTAB
M  V30 COUNTS 18 17 0 0 1
M  V30 BEGIN ATOM
M  V30 1 C 75.916200 57.259400 42.987000 0
M  V30 2 O 75.009000 57.257400 41.890500 0
M  V30 3 C 75.384700 56.444000 40.823200 0
M  V30 4 C 75.108000 55.015500 41.248100 0
M  V30 5 C 73.622600 54.691400 41.547300 0 CFG=2
M  V30 6 C 73.057900 55.464300 42.751600 0
M  V30 7 H 75.529300 57.952600 43.725200 0
M  V30 8 H 76.056800 56.303200 43.489500 0
M  V30 9 H 76.873400 57.657800 42.658200 0
M  V30 10 H 76.432400 56.598200 40.562200 0
M  V30 11 H 74.793500 56.702800 39.946900 0
M  V30 12 H 75.681000 54.770700 42.129500 0
M  V30 13 H 75.533100 54.387300 40.482600 0
M  V30 14 H 73.028700 55.017300 40.694000 0
M  V30 15 H 73.725100 55.428300 43.611100 0
M  V30 16 H 72.886900 56.515600 42.530500 0
M  V30 17 H 72.077900 55.077500 43.037500 0
M  V30 18 R 73.403500 53.175600 41.739300 0
M  V30 END ATOM
M  V30 BEGIN BOND
M  V30 1 1 2 1
M  V30 2 1 3 2
M  V30 3 1 4 3
M  V30 4 1 5 4
M  V30 5 1 6 5
M  V30 6 1 7 1
M  V30 7 1 8 1
M  V30 8 1 9 1
M  V30 9 1 10 3
M  V30 10 1 11 3
M  V30 11 1 12 4
M  V30 12 1 13 4
M  V30 13 1 5 14 CFG=3
M  V30 14 1 15 6
M  V30 15 1 16 6
M  V30 16 1 17 6
M  V30 17 1 18 5
M  V30 END BOND
M  V30 END CTAB
M  END
$$$$
R-group 1064 (8823-1)
     RDKit          3D

  0  0  0  0  0  0  0  0  0  0999 V3000
M  V30 BEGIN CTAB
M  V30 COUNTS 11 11 0 0 1
M  V30 BEGIN ATOM
M  V30 1 C 73.219600 54.609800 42.277300 0
M  V30 2 C 74.164500 55.681300 41.892400 0
M  V30 3 C 74.458100 56.335000 40.718400 0
M  V30 4 N 75.683900 56.930600 40.915500 0
M  V30 5 C 75.912000 56.847700 42.204900 0
M  V30 6 O 75.070500 56.015400 42.875400 0
M  V30 7 H 72.222000 54.848800 41.978500 0
M  V30 8 H 73.265600 54.607100 43.324700 0
M  V30 9 H 74.014000 56.279200 39.738300 0
M  V30 10 H 76.727000 57.309700 42.709100 0
M  V30 11 R 73.546600 53.224300 41.742400 0
M  V30 END ATOM
M  V30 BEGIN BOND
M  V30 1 1 2 1
M  V30 2 2 3 2
M  V30 3 1 4 3
M  V30 4 2 5 4
M  V30 5 1 6 2
M  V30 6 1 6 5
M  V30 7 1 7 1
M  V30 8 1 8 1
M  V30 9 1 9 3
M  V30 10 1 10 5
M  V30 11 1 11 1
M  V30 END BOND
M  V30 END CTAB
M  END
$$$$
R-group 1065 (43094-1)
     RDKit          3D

  0  0  0  0  0  0  0  0  0  0999 V3000
M  V30 BEGIN CTAB
M  V30 COUNTS 20 20 0 0 1
M  V30 BEGIN ATOM
M  V30 1 C 73.924700 54.973300 41.671600 0 CFG=2
M  V30 2 C 75.423700 55.266300 41.391700 0
M  V30 3 C 75.730100 56.750300 41.449800 0
M  V30 4 O 75.179800 57.258000 42.658500 0
M  V30 5 C 73.763800 57.236800 42.784200 0 CFG=1
M  V30 6 C 72.985600 57.981000 41.659000 0
M  V30 7 O 72.119600 59.010300 42.124300 0
M  V30 8 C 73.481300 55.749000 42.922800 0
M  V30 9 H 73.363900 55.365300 40.825200 0
M  V30 10 H 76.066300 54.795200 42.124400 0
M  V30 11 H 75.753500 54.895900 40.428000 0
M  V30 12 H 76.810100 56.905500 41.463600 0
M  V30 13 H 75.361400 57.256400 40.560400 0
M  V30 14 H 73.526500 57.728100 43.724700 0
M  V30 15 H 73.672100 58.458300 40.983800 0
M  V30 16 H 72.452400 57.299000 41.007400 0
M  V30 17 H 72.435600 55.592700 43.168600 0
M  V30 18 H 74.072200 55.391900 43.768100 0
M  V30 19 H 71.229500 58.687900 42.180100 0
M  V30 20 R 73.558000 53.475700 41.792500 0
M  V30 END ATOM
M  V30 BEGIN BOND
M  V30 1 1 2 1
M  V30 2 1 3 2
M  V30 3 1 4 3
M  V30 4 1 5 4
M  V30 5 1 6 5
M  V30 6 1 7 6
M  V30 7 1 8 1
M  V30 8 1 8 5
M  V30 9 1 1 9 CFG=3
M  V30 10 1 10 2
M  V30 11 1 11 2
M  V30 12 1 12 3
M  V30 13 1 13 3
M  V30 14 1 5 14 CFG=1
M  V30 15 1 15 6
M  V30 16 1 16 6
M  V30 17 1 17 8
M  V30 18 1 18 8
M  V30 19 1 19 7
M  V30 20 1 20 1
M  V30 END BOND
M  V30 END CTAB
M  END
$$$$
R-group 1066 (11603-2)
     RDKit          3D

  0  0  0  0  0  0  0  0  0  0999 V3000
M  V30 BEGIN CTAB
M  V30 COUNTS 16 15 0 0 1
M  V30 BEGIN ATOM
M  V30 1 C 76.686600 57.067600 41.672100 0
M  V30 2 C 75.457500 56.430400 41.085400 0
M  V30 3 O 74.872100 56.858000 40.100000 0
M  V30 4 N 74.995600 55.434200 41.820200 0
M  V30 5 C 73.594200 55.137800 41.910400 0 CFG=2
M  V30 6 C 73.115400 55.923200 43.138700 0
M  V30 7 O 73.272400 57.320100 42.924700 0
M  V30 8 H 76.402800 57.661700 42.529100 0
M  V30 9 H 77.245900 56.265200 42.124200 0
M  V30 10 H 77.272000 57.639800 40.952500 0
M  V30 11 H 73.049600 55.557000 41.061700 0
M  V30 12 H 72.071600 55.691100 43.325700 0
M  V30 13 H 73.702900 55.658000 44.013400 0
M  V30 14 H 75.572500 55.099600 42.577700 0
M  V30 15 H 74.113000 57.466900 42.520800 0
M  V30 16 R 73.377200 53.598200 41.888400 0
M  V30 END ATOM
M  V30 BEGIN BOND
M  V30 1 1 2 1
M  V30 2 2 3 2
M  V30 3 1 4 2
M  V30 4 1 5 4
M  V30 5 1 6 5
M  V30 6 1 7 6
M  V30 7 1 8 1
M  V30 8 1 9 1
M  V30 9 1 10 1
M  V30 10 1 5 11 CFG=3
M  V30 11 1 12 6
M  V30 12 1 13 6
M  V30 13 1 14 4
M  V30 14 1 15 7
M  V30 15 1 16 5
M  V30 END BOND
M  V30 END CTAB
M  END
$$$$
R-group 1067 (19513-1)
     RDKit          3D

  0  0  0  0  0  0  0  0  0  0999 V3000
M  V30 BEGIN CTAB
M  V30 COUNTS 15 15 0 0 1
M  V30 BEGIN ATOM
M  V30 1 C 73.538700 54.430400 41.566600 0
M  V30 2 C 73.272300 55.215400 40.401600 0
M  V30 3 N 73.672200 56.456300 40.524800 0
M  V30 4 N 74.175100 56.488800 41.772000 0
M  V30 5 C 74.820600 57.655100 42.227600 0
M  V30 6 C 76.322400 57.583400 41.884800 0
M  V30 7 F 76.472600 57.512000 40.571400 0
M  V30 8 C 74.072500 55.316100 42.444700 0
M  V30 9 H 72.839200 54.919300 39.458000 0
M  V30 10 H 74.296600 58.458000 41.724900 0
M  V30 11 H 74.661700 57.757300 43.302600 0
M  V30 12 H 76.872300 58.456900 42.233800 0
M  V30 13 H 76.782300 56.687400 42.297700 0
M  V30 14 H 74.435400 55.204100 43.455800 0
M  V30 15 R 73.344500 52.965600 41.754700 0
M  V30 END ATOM
M  V30 BEGIN BOND
M  V30 1 1 2 1
M  V30 2 2 3 2
M  V30 3 1 4 3
M  V30 4 1 5 4
M  V30 5 1 6 5
M  V30 6 1 7 6
M  V30 7 2 8 1
M  V30 8 1 8 4
M  V30 9 1 9 2
M  V30 10 1 10 5
M  V30 11 1 11 5
M  V30 12 1 12 6
M  V30 13 1 13 6
M  V30 14 1 14 8
M  V30 15 1 15 1
M  V30 END BOND
M  V30 END CTAB
M  END
$$$$
R-group 1068 (3993-1)
     RDKit          3D

  0  0  0  0  0  0  0  0  0  0999 V3000
M  V30 BEGIN CTAB
M  V30 COUNTS 10 9 0 0 1
M  V30 BEGIN ATOM
M  V30 1 C 73.254700 54.719500 42.071400 0
M  V30 2 S 74.753400 55.686500 42.412700 0
M  V30 3 N 74.071600 57.245700 42.541500 0
M  V30 4 O 75.272100 55.261900 43.722900 0
M  V30 5 O 75.602400 55.708300 41.215500 0
M  V30 6 H 72.809400 55.257800 41.247000 0
M  V30 7 H 72.585100 54.776200 42.924700 0
M  V30 8 H 74.144000 57.613300 43.489800 0
M  V30 9 H 74.414100 57.877100 41.817200 0
M  V30 10 R 73.502700 53.285700 41.606700 0
M  V30 END ATOM
M  V30 BEGIN BOND
M  V30 1 1 2 1
M  V30 2 1 3 2
M  V30 3 2 4 2
M  V30 4 2 5 2
M  V30 5 1 6 1
M  V30 6 1 7 1
M  V30 7 1 8 3
M  V30 8 1 9 3
M  V30 9 1 10 1
M  V30 END BOND
M  V30 END CTAB
M  END
$$$$
R-group 1069 (1509-1)
     RDKit          3D

  0  0  0  0  0  0  0  0  0  0999 V3000
M  V30 BEGIN CTAB
M  V30 COUNTS 11 11 0 0 1
M  V30 BEGIN ATOM
M  V30 1 C 73.775900 54.648900 41.406400 0
M  V30 2 C 73.672500 55.462500 40.290700 0
M  V30 3 N 73.770100 56.750300 40.770100 0
M  V30 4 C 73.896400 56.625000 42.089300 0
M  V30 5 N 73.671800 57.658100 42.924500 0
M  V30 6 N 74.034100 55.406200 42.524400 0
M  V30 7 H 73.464500 55.248600 39.251600 0
M  V30 8 H 73.703300 57.519300 43.923100 0
M  V30 9 H 73.630600 57.601900 40.247400 0
M  V30 10 H 73.572500 58.606400 42.591900 0
M  V30 11 R 73.548500 53.190000 41.584900 0
M  V30 END ATOM
M  V30 BEGIN BOND
M  V30 1 2 2 1
M  V30 2 1 3 2
M  V30 3 1 4 3
M  V30 4 1 5 4
M  V30 5 1 6 1
M  V30 6 2 6 4
M  V30 7 1 7 2
M  V30 8 1 8 5
M  V30 9 1 9 3
M  V30 10 1 10 5
M  V30 11 1 11 1
M  V30 END BOND
M  V30 END CTAB
M  END
$$$$
R-group 1070 (12-1)
     RDKit          3D

  0  0  0  0  0  0  0  0  0  0999 V3000
M  V30 BEGIN CTAB
M  V30 COUNTS 6 5 0 0 1
M  V30 BEGIN ATOM
M  V30 1 C 73.842300 55.226500 42.737800 0
M  V30 2 C 74.868300 56.074200 42.113200 0
M  V30 3 N 75.672400 56.740000 41.617200 0
M  V30 4 H 72.890300 55.744700 42.630400 0
M  V30 5 H 74.072600 55.226300 43.801000 0
M  V30 6 R 73.732300 53.797500 42.146200 0
M  V30 END ATOM
M  V30 BEGIN BOND
M  V30 1 1 2 1
M  V30 2 3 3 2
M  V30 3 1 4 1
M  V30 4 1 5 1
M  V30 5 1 6 1
M  V30 END BOND
M  V30 END CTAB
M  END
$$$$
R-group 1071 (39286-1)
     RDKit          3D

  0  0  0  0  0  0  0  0  0  0999 V3000
M  V30 BEGIN CTAB
M  V30 COUNTS 18 17 0 0 1
M  V30 BEGIN ATOM
M  V30 1 C 74.292100 57.335700 39.733300 0
M  V30 2 C 75.690100 57.052300 40.271900 0
M  V30 3 C 75.771400 56.666400 41.734600 0
M  V30 4 O 75.225700 55.370000 41.909900 0
M  V30 5 C 73.814900 55.261700 42.043900 0 CFG=2
M  V30 6 C 73.404000 55.957600 43.325800 0
M  V30 7 H 74.377200 58.036300 38.924800 0
M  V30 8 H 73.799900 56.445600 39.338200 0
M  V30 9 H 73.649300 57.809800 40.474400 0
M  V30 10 H 76.351300 57.904300 40.101800 0
M  V30 11 H 76.084800 56.216000 39.724900 0
M  V30 12 H 75.350800 57.426500 42.384200 0
M  V30 13 H 76.822700 56.604100 42.010400 0
M  V30 14 H 73.274900 55.775600 41.259500 0
M  V30 15 H 72.357000 55.774500 43.557300 0
M  V30 16 H 74.076200 55.600900 44.104700 0
M  V30 17 H 73.504600 57.039200 43.310500 0
M  V30 18 R 73.430200 53.763100 41.922800 0
M  V30 END ATOM
M  V30 BEGIN BOND
M  V30 1 1 2 1
M  V30 2 1 3 2
M  V30 3 1 4 3
M  V30 4 1 5 4
M  V30 5 1 6 5
M  V30 6 1 7 1
M  V30 7 1 8 1
M  V30 8 1 9 1
M  V30 9 1 10 2
M  V30 10 1 11 2
M  V30 11 1 12 3
M  V30 12 1 13 3
M  V30 13 1 5 14 CFG=3
M  V30 14 1 15 6
M  V30 15 1 16 6
M  V30 16 1 17 6
M  V30 17 1 18 5
M  V30 END BOND
M  V30 END CTAB
M  END
$$$$
R-group 1072 (36314-1)
     RDKit          3D

  0  0  0  0  0  0  0  0  0  0999 V3000
M  V30 BEGIN CTAB
M  V30 COUNTS 20 21 0 0 1
M  V30 BEGIN ATOM
M  V30 1 C 73.697600 54.405000 41.956800 0
M  V30 2 O 73.272400 55.009800 40.973700 0
M  V30 3 N 74.472000 54.923200 42.924000 0
M  V30 4 C 75.208500 56.148800 42.922400 0 CFG=2
M  V30 5 C 74.248000 57.323100 43.147100 0
M  V30 6 C 73.921500 57.811000 41.745100 0
M  V30 7 C 75.118000 57.397300 40.897200 0 CFG=1
M  V30 8 C 76.576800 57.658200 41.261500 0
M  V30 9 C 75.912400 56.370000 41.613100 0 CFG=1
M  V30 10 H 75.947000 56.095800 43.719300 0
M  V30 11 H 73.353300 57.065000 43.720500 0
M  V30 12 H 74.780800 58.096100 43.699200 0
M  V30 13 H 73.022400 57.331600 41.368900 0
M  V30 14 H 73.676200 58.860000 41.726000 0
M  V30 15 H 74.912500 57.238700 39.839300 0
M  V30 16 H 77.302200 57.655900 40.450000 0
M  V30 17 H 76.872200 58.225300 42.136900 0
M  V30 18 H 76.227500 55.492800 41.057800 0
M  V30 19 H 74.661700 54.314000 43.705900 0
M  V30 20 R 73.466900 52.907900 42.072600 0
M  V30 END ATOM
M  V30 BEGIN BOND
M  V30 1 2 2 1
M  V30 2 1 3 1
M  V30 3 1 4 3
M  V30 4 1 5 4
M  V30 5 1 6 5
M  V30 6 1 7 6
M  V30 7 1 8 7
M  V30 8 1 9 4
M  V30 9 1 9 7
M  V30 10 1 9 8
M  V30 11 1 4 10 CFG=1
M  V30 12 1 11 5
M  V30 13 1 12 5
M  V30 14 1 13 6
M  V30 15 1 14 6
M  V30 16 1 7 15 CFG=3
M  V30 17 1 16 8
M  V30 18 1 17 8
M  V30 19 1 9 18 CFG=3
M  V30 20 1 19 3
M  V30 21 1 20 1
M  V30 END BOND
M  V30 END CTAB
M  END
$$$$
R-group 1073 (25096-1)
     RDKit          3D

  0  0  0  0  0  0  0  0  0  0999 V3000
M  V30 BEGIN CTAB
M  V30 COUNTS 15 14 0 0 1
M  V30 BEGIN ATOM
M  V30 1 C 76.073300 56.877400 42.229800 0
M  V30 2 O 75.508500 55.604600 41.929600 0
M  V30 3 C 74.089600 55.459700 41.861500 0 CFG=1
M  V30 4 C 73.511000 55.953500 43.207600 0
M  V30 5 C 73.650400 56.396300 40.679700 0
M  V30 6 F 74.566300 56.457800 39.725600 0
M  V30 7 F 72.549100 55.995300 40.082500 0
M  V30 8 F 73.388100 57.637500 41.091600 0
M  V30 9 H 77.148300 56.815700 42.124700 0
M  V30 10 H 75.762800 57.657100 41.538300 0
M  V30 11 H 75.872300 57.198300 43.252400 0
M  V30 12 H 72.457400 55.692900 43.324600 0
M  V30 13 H 74.071800 55.515000 44.034300 0
M  V30 14 H 73.577000 57.034200 43.327100 0
M  V30 15 R 73.754100 53.898000 41.701200 0
M  V30 END ATOM
M  V30 BEGIN BOND
M  V30 1 1 2 1
M  V30 2 1 3 2
M  V30 3 1 4 3
M  V30 4 1 5 3
M  V30 5 1 6 5
M  V30 6 1 7 5
M  V30 7 1 8 5
M  V30 8 1 9 1
M  V30 9 1 10 1
M  V30 10 1 11 1
M  V30 11 1 12 4
M  V30 12 1 13 4
M  V30 13 1 14 4
M  V30 14 1 3 15 CFG=3
M  V30 END BOND
M  V30 END CTAB
M  END
$$$$
R-group 1074 (664-1)
     RDKit          3D

  0  0  0  0  0  0  0  0  0  0999 V3000
M  V30 BEGIN CTAB
M  V30 COUNTS 12 12 0 0 1
M  V30 BEGIN ATOM
M  V30 1 C 73.934700 54.528900 41.783700 0
M  V30 2 C 73.360600 55.322300 40.768500 0
M  V30 3 C 73.591300 56.697400 40.805000 0
M  V30 4 F 72.862900 57.560000 40.122600 0
M  V30 5 C 74.430800 57.257800 41.725500 0
M  V30 6 C 75.156100 56.466300 42.579300 0
M  V30 7 F 76.071700 57.014100 43.363700 0
M  V30 8 C 74.871400 55.117300 42.660100 0
M  V30 9 H 72.634200 54.949400 40.068900 0
M  V30 10 H 74.472400 58.333500 41.726000 0
M  V30 11 H 75.438300 54.602900 43.417500 0
M  V30 12 R 73.572400 53.070500 41.932800 0
M  V30 END ATOM
M  V30 BEGIN BOND
M  V30 1 2 2 1
M  V30 2 1 3 2
M  V30 3 1 4 3
M  V30 4 2 5 3
M  V30 5 1 6 5
M  V30 6 1 7 6
M  V30 7 1 8 1
M  V30 8 2 8 6
M  V30 9 1 9 2
M  V30 10 1 10 5
M  V30 11 1 11 8
M  V30 12 1 12 1
M  V30 END BOND
M  V30 END CTAB
M  END
$$$$
R-group 1075 (4959-2)
     RDKit          3D

  0  0  0  0  0  0  0  0  0  0999 V3000
M  V30 BEGIN CTAB
M  V30 COUNTS 20 19 0 0 1
M  V30 BEGIN ATOM
M  V30 1 C 74.787300 57.257900 39.690500 0
M  V30 2 C 76.070200 57.300500 40.530400 0
M  V30 3 C 75.871100 56.960000 42.006600 0
M  V30 4 C 75.425500 55.514100 42.249600 0
M  V30 5 C 73.907200 55.227500 42.124700 0 CFG=2
M  V30 6 C 73.144600 56.032500 43.184900 0
M  V30 7 H 74.871800 57.924600 38.836800 0
M  V30 8 H 74.575600 56.255700 39.318000 0
M  V30 9 H 73.928900 57.617700 40.257600 0
M  V30 10 H 76.477300 58.310000 40.468400 0
M  V30 11 H 76.832800 56.639700 40.124900 0
M  V30 12 H 75.172000 57.648700 42.472500 0
M  V30 13 H 76.830600 57.130500 42.499800 0
M  V30 14 H 75.734000 55.244800 43.259700 0
M  V30 15 H 75.974500 54.870300 41.570200 0
M  V30 16 H 73.548100 55.627400 41.188000 0
M  V30 17 H 73.670000 55.928500 44.124700 0
M  V30 18 H 73.091700 57.093400 42.945100 0
M  V30 19 H 72.124300 55.679200 43.324100 0
M  V30 20 R 73.544000 53.703500 42.100200 0
M  V30 END ATOM
M  V30 BEGIN BOND
M  V30 1 1 2 1
M  V30 2 1 3 2
M  V30 3 1 4 3
M  V30 4 1 5 4
M  V30 5 1 6 5
M  V30 6 1 7 1
M  V30 7 1 8 1
M  V30 8 1 9 1
M  V30 9 1 10 2
M  V30 10 1 11 2
M  V30 11 1 12 3
M  V30 12 1 13 3
M  V30 13 1 14 4
M  V30 14 1 15 4
M  V30 15 1 5 16 CFG=3
M  V30 16 1 17 6
M  V30 17 1 18 6
M  V30 18 1 19 6
M  V30 19 1 20 5
M  V30 END BOND
M  V30 END CTAB
M  END
$$$$
R-group 1076 (10543-1)
     RDKit          3D

  0  0  0  0  0  0  0  0  0  0999 V3000
M  V30 BEGIN CTAB
M  V30 COUNTS 16 17 0 0 1
M  V30 BEGIN ATOM
M  V30 1 N 74.102000 54.961500 41.708200 0
M  V30 2 C 73.272200 55.885900 40.930800 0
M  V30 3 C 72.889200 56.978000 41.935800 0 CFG=1
M  V30 4 C 72.865900 56.260500 43.268800 0
M  V30 5 C 74.223000 55.647700 42.999100 0 CFG=2
M  V30 6 C 75.035800 56.907200 42.795700 0
M  V30 7 O 74.066000 57.672700 42.090500 0
M  V30 8 H 73.834100 56.299000 40.093100 0
M  V30 9 H 72.374600 55.423100 40.525000 0
M  V30 10 H 72.092800 57.670200 41.652500 0
M  V30 11 H 72.831900 56.925100 44.131400 0
M  V30 12 H 72.063100 55.531600 43.322700 0
M  V30 13 H 74.627400 55.060300 43.814700 0
M  V30 14 H 75.308500 57.410400 43.723800 0
M  V30 15 H 75.938100 56.744700 42.208800 0
M  V30 16 R 73.615000 53.576900 41.760000 0
M  V30 END ATOM
M  V30 BEGIN BOND
M  V30 1 1 2 1
M  V30 2 1 3 2
M  V30 3 1 4 3
M  V30 4 1 5 1
M  V30 5 1 5 4
M  V30 6 1 6 5
M  V30 7 1 7 3
M  V30 8 1 7 6
M  V30 9 1 8 2
M  V30 10 1 9 2
M  V30 11 1 3 10 CFG=3
M  V30 12 1 11 4
M  V30 13 1 12 4
M  V30 14 1 5 13 CFG=1
M  V30 15 1 14 6
M  V30 16 1 15 6
M  V30 17 1 16 1
M  V30 END BOND
M  V30 END CTAB
M  END
$$$$
R-group 1077 (12635-1)
     RDKit          3D

  0  0  0  0  0  0  0  0  0  0999 V3000
M  V30 BEGIN CTAB
M  V30 COUNTS 13 13 0 0 1
M  V30 BEGIN ATOM
M  V30 1 S 74.285300 55.627800 41.304600 0 CFG=1
M  V30 2 N 73.272200 56.274300 40.306500 0
M  V30 3 O 75.692800 55.657100 40.927100 0
M  V30 4 C 74.117400 56.464000 42.925400 0
M  V30 5 C 75.252500 57.439300 43.142500 0
M  V30 6 C 73.848000 57.943400 42.886700 0
M  V30 7 H 72.312100 56.286900 40.651500 0
M  V30 8 H 73.747500 55.831700 43.724500 0
M  V30 9 H 75.678200 57.575200 44.124700 0
M  V30 10 H 75.965300 57.632300 42.343100 0
M  V30 11 H 73.654100 58.416800 41.926200 0
M  V30 12 H 73.271900 58.332600 43.722400 0
M  V30 13 R 73.710200 53.883500 41.716600 0
M  V30 END ATOM
M  V30 BEGIN BOND
M  V30 1 2 2 1
M  V30 2 2 3 1
M  V30 3 1 4 1
M  V30 4 1 5 4
M  V30 5 1 6 4
M  V30 6 1 6 5
M  V30 7 1 7 2
M  V30 8 1 8 4
M  V30 9 1 9 5
M  V30 10 1 10 5
M  V30 11 1 11 6
M  V30 12 1 12 6
M  V30 13 1 1 13 CFG=1
M  V30 END BOND
M  V30 END CTAB
M  END
$$$$
R-group 1078 (40057-2)
     RDKit          3D

  0  0  0  0  0  0  0  0  0  0999 V3000
M  V30 BEGIN CTAB
M  V30 COUNTS 18 18 0 0 1
M  V30 BEGIN ATOM
M  V30 1 C 74.020000 54.585000 41.521100 0 CFG=1
M  V30 2 C 73.538900 55.304700 40.226600 0
M  V30 3 C 73.912000 56.770200 40.296700 0
M  V30 4 C 73.098200 57.267600 41.459900 0 CFG=2
M  V30 5 F 73.272200 58.483000 41.725000 0
M  V30 6 C 73.513200 56.715100 42.808700 0
M  V30 7 C 73.471500 55.224900 42.801000 0
M  V30 8 H 75.106900 54.703800 41.531500 0
M  V30 9 H 73.971800 54.926300 39.308100 0
M  V30 10 H 72.458900 55.197900 40.109000 0
M  V30 11 H 74.981700 56.909100 40.454200 0
M  V30 12 H 73.639700 57.291700 39.380300 0
M  V30 13 H 72.072900 57.267600 41.137900 0
M  V30 14 H 74.533900 57.030100 43.036400 0
M  V30 15 H 72.882500 57.100000 43.612800 0
M  V30 16 H 72.430800 54.926000 42.925200 0
M  V30 17 H 74.071400 54.913600 43.658100 0
M  V30 18 R 73.671600 53.094100 41.621600 0
M  V30 END ATOM
M  V30 BEGIN BOND
M  V30 1 1 2 1
M  V30 2 1 3 2
M  V30 3 1 4 3
M  V30 4 1 5 4
M  V30 5 1 6 4
M  V30 6 1 7 1
M  V30 7 1 7 6
M  V30 8 1 1 8 CFG=1
M  V30 9 1 9 2
M  V30 10 1 10 2
M  V30 11 1 11 3
M  V30 12 1 12 3
M  V30 13 1 4 13 CFG=3
M  V30 14 1 14 6
M  V30 15 1 15 6
M  V30 16 1 16 7
M  V30 17 1 17 7
M  V30 18 1 18 1
M  V30 END BOND
M  V30 END CTAB
M  END
$$$$
R-group 1079 (1431-1)
     RDKit          3D

  0  0  0  0  0  0  0  0  0  0999 V3000
M  V30 BEGIN CTAB
M  V30 COUNTS 12 11 0 0 1
M  V30 BEGIN ATOM
M  V30 1 C 73.275000 57.551400 43.134300 0
M  V30 2 C 73.266200 56.014700 43.146800 0
M  V30 3 C 73.688100 55.359100 41.833600 0 CFG=1
M  V30 4 C 74.929400 55.956100 41.326100 0
M  V30 5 N 75.889800 56.457400 40.930000 0
M  V30 6 H 72.859700 57.943800 44.062100 0
M  V30 7 H 72.685000 57.950700 42.308800 0
M  V30 8 H 74.287500 57.944600 43.045200 0
M  V30 9 H 73.905300 55.658000 43.952000 0
M  V30 10 H 72.247500 55.674700 43.326600 0
M  V30 11 H 72.968000 55.747300 41.113800 0
M  V30 12 R 73.521200 53.802300 41.784500 0
M  V30 END ATOM
M  V30 BEGIN BOND
M  V30 1 1 2 1
M  V30 2 1 3 2
M  V30 3 1 4 3
M  V30 4 3 5 4
M  V30 5 1 6 1
M  V30 6 1 7 1
M  V30 7 1 8 1
M  V30 8 1 9 2
M  V30 9 1 10 2
M  V30 10 1 3 11 CFG=3
M  V30 11 1 12 3
M  V30 END BOND
M  V30 END CTAB
M  END
$$$$
R-group 1080 (2321-2)
     RDKit          3D

  0  0  0  0  0  0  0  0  0  0999 V3000
M  V30 BEGIN CTAB
M  V30 COUNTS 15 14 0 0 1
M  V30 BEGIN ATOM
M  V30 1 C 73.649700 57.810800 41.512100 0
M  V30 2 O 74.194500 57.170900 42.651700 0
M  V30 3 C 74.650500 55.839600 42.470400 0 CFG=1
M  V30 4 C 75.385100 55.524400 43.785300 0
M  V30 5 C 73.417900 54.945400 42.178200 0
M  V30 6 H 73.670200 58.867000 41.724600 0
M  V30 7 H 74.218900 57.633200 40.600000 0
M  V30 8 H 72.604100 57.552800 41.343600 0
M  V30 9 H 75.361400 55.809700 41.642900 0
M  V30 10 H 76.066500 54.687200 43.721200 0
M  V30 11 H 75.995100 56.365700 44.123800 0
M  V30 12 H 74.679400 55.257400 44.574000 0
M  V30 13 H 72.872300 55.429700 41.376200 0
M  V30 14 H 72.704900 54.961500 42.988200 0
M  V30 15 R 73.625400 53.518800 41.650100 0
M  V30 END ATOM
M  V30 BEGIN BOND
M  V30 1 1 2 1
M  V30 2 1 3 2
M  V30 3 1 4 3
M  V30 4 1 5 3
M  V30 5 1 6 1
M  V30 6 1 7 1
M  V30 7 1 8 1
M  V30 8 1 3 9 CFG=3
M  V30 9 1 10 4
M  V30 10 1 11 4
M  V30 11 1 12 4
M  V30 12 1 13 5
M  V30 13 1 14 5
M  V30 14 1 15 5
M  V30 END BOND
M  V30 END CTAB
M  END
$$$$
R-group 1081 (7622-2)
     RDKit          3D

  0  0  0  0  0  0  0  0  0  0999 V3000
M  V30 BEGIN CTAB
M  V30 COUNTS 13 12 0 0 1
M  V30 BEGIN ATOM
M  V30 1 O 74.590300 54.881900 41.583600 0
M  V30 2 C 74.641500 55.857700 42.593500 0 CFG=1
M  V30 3 C 75.800600 56.798200 42.224900 0
M  V30 4 C 73.272400 56.526000 42.535100 0
M  V30 5 O 73.272100 57.658000 43.324500 0
M  V30 6 H 74.829300 55.425200 43.576000 0
M  V30 7 H 75.955400 57.565800 42.985200 0
M  V30 8 H 76.732500 56.243800 42.124300 0
M  V30 9 H 75.615300 57.297200 41.274000 0
M  V30 10 H 73.039700 56.822300 41.511300 0
M  V30 11 H 72.489100 55.874600 42.926200 0
M  V30 12 H 73.272200 57.388100 44.231000 0
M  V30 13 R 73.892200 53.684800 41.889100 0
M  V30 END ATOM
M  V30 BEGIN BOND
M  V30 1 1 2 1
M  V30 2 1 3 2
M  V30 3 1 4 2
M  V30 4 1 5 4
M  V30 5 1 2 6 CFG=1
M  V30 6 1 7 3
M  V30 7 1 8 3
M  V30 8 1 9 3
M  V30 9 1 10 4
M  V30 10 1 11 4
M  V30 11 1 12 5
M  V30 12 1 13 1
M  V30 END BOND
M  V30 END CTAB
M  END
$$$$
R-group 1082 (7195-1)
     RDKit          3D

  0  0  0  0  0  0  0  0  0  0999 V3000
M  V30 BEGIN CTAB
M  V30 COUNTS 10 10 0 0 1
M  V30 BEGIN ATOM
M  V30 1 O 74.361700 55.162800 42.520700 0
M  V30 2 C 73.366300 56.159300 42.656500 0
M  V30 3 C 73.964600 57.510600 42.933500 0
M  V30 4 C 73.401800 57.204800 41.565300 0
M  V30 5 H 72.474300 55.897800 43.223800 0
M  V30 6 H 73.383800 58.150100 43.592900 0
M  V30 7 H 75.044900 57.577100 43.043400 0
M  V30 8 H 74.110600 57.062800 40.752500 0
M  V30 9 H 72.473800 57.697300 41.289700 0
M  V30 10 R 73.848200 53.870000 42.220800 0
M  V30 END ATOM
M  V30 BEGIN BOND
M  V30 1 1 2 1
M  V30 2 1 3 2
M  V30 3 1 4 2
M  V30 4 1 4 3
M  V30 5 1 5 2
M  V30 6 1 6 3
M  V30 7 1 7 3
M  V30 8 1 8 4
M  V30 9 1 9 4
M  V30 10 1 10 1
M  V30 END BOND
M  V30 END CTAB
M  END
$$$$
R-group 1083 (31018-6)
     RDKit          3D

  0  0  0  0  0  0  0  0  0  0999 V3000
M  V30 BEGIN CTAB
M  V30 COUNTS 20 21 0 0 1
M  V30 BEGIN ATOM
M  V30 1 C 74.053100 55.041500 42.078100 0 CFG=2
M  V30 2 C 72.990300 55.852900 42.848000 0
M  V30 3 C 72.872400 57.118800 41.955900 0 CFG=1
M  V30 4 C 74.152600 57.883400 42.083800 0
M  V30 5 C 75.104300 57.133900 41.142400 0 CFG=1
M  V30 6 O 76.338600 56.858000 41.724800 0
M  V30 7 C 74.282100 55.902000 40.791600 0 CFG=2
M  V30 8 C 72.946500 56.575100 40.525500 0
M  V30 9 H 74.961400 55.089600 42.676700 0
M  V30 10 H 72.072800 55.261000 42.924400 0
M  V30 11 H 73.298300 56.097400 43.862900 0
M  V30 12 H 72.072500 57.834000 42.124900 0
M  V30 13 H 73.918800 58.858000 41.724700 0
M  V30 14 H 74.481600 57.967800 43.120700 0
M  V30 15 H 75.317600 57.657200 40.215500 0
M  V30 16 H 74.691400 55.423400 39.915400 0
M  V30 17 H 73.004700 57.365300 39.774200 0
M  V30 18 H 72.164000 55.884800 40.205700 0
M  V30 19 H 76.190800 56.410500 42.542600 0
M  V30 20 R 73.704100 53.533600 41.914900 0
M  V30 END ATOM
M  V30 BEGIN BOND
M  V30 1 1 2 1
M  V30 2 1 3 2
M  V30 3 1 4 3
M  V30 4 1 5 4
M  V30 5 1 6 5
M  V30 6 1 7 1
M  V30 7 1 7 5
M  V30 8 1 8 3
M  V30 9 1 8 7
M  V30 10 1 1 9 CFG=1
M  V30 11 1 10 2
M  V30 12 1 11 2
M  V30 13 1 3 12 CFG=3
M  V30 14 1 13 4
M  V30 15 1 14 4
M  V30 16 1 5 15 CFG=3
M  V30 17 1 7 16 CFG=3
M  V30 18 1 17 8
M  V30 19 1 18 8
M  V30 20 1 19 6
M  V30 21 1 20 1
M  V30 END BOND
M  V30 END CTAB
M  END
$$$$
R-group 1084 (11299-1)
     RDKit          3D

  0  0  0  0  0  0  0  0  0  0999 V3000
M  V30 BEGIN CTAB
M  V30 COUNTS 14 13 0 0 1
M  V30 BEGIN ATOM
M  V30 1 C 73.856000 55.248800 41.913400 0
M  V30 2 C 73.345500 56.000100 43.157900 0
M  V30 3 C 73.561400 57.511700 43.119700 0
M  V30 4 C 73.124900 58.197900 41.822900 0
M  V30 5 F 72.872500 58.057500 44.123700 0
M  V30 6 F 74.860100 57.721400 43.324700 0
M  V30 7 H 74.933900 55.381900 41.810500 0
M  V30 8 H 73.421100 55.728600 41.039300 0
M  V30 9 H 72.291200 55.778900 43.324800 0
M  V30 10 H 73.880900 55.657900 44.038500 0
M  V30 11 H 73.269100 59.258200 41.914700 0
M  V30 12 H 73.694900 57.872200 40.954700 0
M  V30 13 H 72.072300 58.058100 41.612900 0
M  V30 14 R 73.480600 53.749400 41.841500 0
M  V30 END ATOM
M  V30 BEGIN BOND
M  V30 1 1 2 1
M  V30 2 1 3 2
M  V30 3 1 4 3
M  V30 4 1 5 3
M  V30 5 1 6 3
M  V30 6 1 7 1
M  V30 7 1 8 1
M  V30 8 1 9 2
M  V30 9 1 10 2
M  V30 10 1 11 4
M  V30 11 1 12 4
M  V30 12 1 13 4
M  V30 13 1 14 1
M  V30 END BOND
M  V30 END CTAB
M  END
$$$$
R-group 1085 (11608-1)
     RDKit          3D

  0  0  0  0  0  0  0  0  0  0999 V3000
M  V30 BEGIN CTAB
M  V30 COUNTS 19 19 0 0 1
M  V30 BEGIN ATOM
M  V30 1 O 73.669300 54.583200 42.319700 0
M  V30 2 C 74.963700 55.115100 42.104300 0
M  V30 3 C 74.794900 56.290300 41.167400 0
M  V30 4 C 74.169000 55.958500 39.803200 0
M  V30 5 C 73.646900 57.287600 39.323200 0
M  V30 6 C 73.044700 57.826100 40.612900 0
M  V30 7 C 73.903600 57.359100 41.781700 0
M  V30 8 H 75.370700 55.474800 43.051700 0
M  V30 9 H 75.659200 54.396900 41.675500 0
M  V30 10 H 75.776200 56.732500 40.964900 0
M  V30 11 H 74.872200 55.549000 39.095000 0
M  V30 12 H 73.332300 55.262800 39.913800 0
M  V30 13 H 74.444500 57.930400 38.928300 0
M  V30 14 H 72.888700 57.184000 38.541800 0
M  V30 15 H 72.846300 58.865200 40.585900 0
M  V30 16 H 72.100300 57.316300 40.705500 0
M  V30 17 H 73.281700 56.990200 42.588000 0
M  V30 18 H 74.536000 58.059500 42.226900 0
M  V30 19 R 73.497400 53.187200 42.213800 0
M  V30 END ATOM
M  V30 BEGIN BOND
M  V30 1 1 2 1
M  V30 2 1 3 2
M  V30 3 1 4 3
M  V30 4 1 5 4
M  V30 5 1 6 5
M  V30 6 1 7 3
M  V30 7 1 7 6
M  V30 8 1 8 2
M  V30 9 1 9 2
M  V30 10 1 10 3
M  V30 11 1 11 4
M  V30 12 1 12 4
M  V30 13 1 13 5
M  V30 14 1 14 5
M  V30 15 1 15 6
M  V30 16 1 16 6
M  V30 17 1 17 7
M  V30 18 1 18 7
M  V30 19 1 19 1
M  V30 END BOND
M  V30 END CTAB
M  END
$$$$
R-group 1086 (13435-1)
     RDKit          3D

  0  0  0  0  0  0  0  0  0  0999 V3000
M  V30 BEGIN CTAB
M  V30 COUNTS 15 15 0 0 1
M  V30 BEGIN ATOM
M  V30 1 C 73.447300 54.609900 42.632800 0
M  V30 2 C 74.047100 55.523700 41.655100 0
M  V30 3 C 75.268900 56.086800 41.852800 0
M  V30 4 C 75.660300 56.857900 40.754400 0
M  V30 5 C 76.870400 57.713300 40.737700 0
M  V30 6 C 74.740600 56.857900 39.745400 0
M  V30 7 S 73.318500 55.989900 40.124700 0
M  V30 8 H 72.437300 54.926900 42.887900 0
M  V30 9 H 74.049100 54.746400 43.539400 0
M  V30 10 H 75.880100 55.980000 42.737900 0
M  V30 11 H 76.634200 58.597600 41.309700 0
M  V30 12 H 77.672100 57.258700 41.294800 0
M  V30 13 H 77.185000 58.022200 39.728400 0
M  V30 14 H 74.862500 57.389200 38.815200 0
M  V30 15 R 73.464400 53.127500 42.218200 0
M  V30 END ATOM
M  V30 BEGIN BOND
M  V30 1 1 2 1
M  V30 2 2 3 2
M  V30 3 1 4 3
M  V30 4 1 5 4
M  V30 5 2 6 4
M  V30 6 1 7 2
M  V30 7 1 7 6
M  V30 8 1 8 1
M  V30 9 1 9 1
M  V30 10 1 10 3
M  V30 11 1 11 5
M  V30 12 1 12 5
M  V30 13 1 13 5
M  V30 14 1 14 6
M  V30 15 1 15 1
M  V30 END BOND
M  V30 END CTAB
M  END
$$$$
R-group 1087 (23009-1)
     RDKit          3D

  0  0  0  0  0  0  0  0  0  0999 V3000
M  V30 BEGIN CTAB
M  V30 COUNTS 12 11 0 0 1
M  V30 BEGIN ATOM
M  V30 1 O 73.424800 54.580700 42.140900 0
M  V30 2 C 74.669200 55.248700 42.119300 0
M  V30 3 S 74.534600 56.855400 41.321100 0
M  V30 4 C 76.283300 57.428600 41.388700 0
M  V30 5 O 74.158700 56.634800 39.916300 0
M  V30 6 O 73.672200 57.658200 42.194800 0
M  V30 7 H 74.993700 55.410900 43.146700 0
M  V30 8 H 75.467400 54.715800 41.613100 0
M  V30 9 H 76.424700 58.403700 40.924700 0
M  V30 10 H 76.614600 57.470600 42.425300 0
M  V30 11 H 76.872300 56.709700 40.829500 0
M  V30 12 R 73.419800 53.193000 41.914200 0
M  V30 END ATOM
M  V30 BEGIN BOND
M  V30 1 1 2 1
M  V30 2 1 3 2
M  V30 3 1 4 3
M  V30 4 2 5 3
M  V30 5 2 6 3
M  V30 6 1 7 2
M  V30 7 1 8 2
M  V30 8 1 9 4
M  V30 9 1 10 4
M  V30 10 1 11 4
M  V30 11 1 12 1
M  V30 END BOND
M  V30 END CTAB
M  END
$$$$
R-group 1088 (22341-15)
     RDKit          3D

  0  0  0  0  0  0  0  0  0  0999 V3000
M  V30 BEGIN CTAB
M  V30 COUNTS 18 18 0 0 1
M  V30 BEGIN ATOM
M  V30 1 C 74.412200 55.195500 41.721800 0 CFG=1
M  V30 2 O 73.739600 56.117600 40.874900 0
M  V30 3 C 74.062200 57.440700 41.280400 0 CFG=1
M  V30 4 C 73.008500 58.427300 40.705100 0
M  V30 5 C 74.136300 57.338400 42.811900 0 CFG=1
M  V30 6 O 72.872500 57.657900 43.324900 0
M  V30 7 C 74.433000 55.871700 43.087800 0 CFG=2
M  V30 8 O 75.672300 55.658000 43.722600 0
M  V30 9 H 75.432300 55.123100 41.339100 0
M  V30 10 H 75.064900 57.654900 40.911600 0
M  V30 11 H 72.811700 59.258100 41.382300 0
M  V30 12 H 73.272200 58.833000 39.725800 0
M  V30 13 H 72.072300 57.901600 40.567500 0
M  V30 14 H 74.860200 58.002400 43.286700 0
M  V30 15 H 73.672100 55.456200 43.724700 0
M  V30 16 H 72.838300 57.375300 44.226500 0
M  V30 17 H 76.353800 56.025500 43.179700 0
M  V30 18 R 73.740200 53.799300 41.750600 0
M  V30 END ATOM
M  V30 BEGIN BOND
M  V30 1 1 2 1
M  V30 2 1 3 2
M  V30 3 1 4 3
M  V30 4 1 5 3
M  V30 5 1 6 5
M  V30 6 1 7 1
M  V30 7 1 7 5
M  V30 8 1 8 7
M  V30 9 1 1 9 CFG=3
M  V30 10 1 3 10 CFG=3
M  V30 11 1 11 4
M  V30 12 1 12 4
M  V30 13 1 13 4
M  V30 14 1 5 14 CFG=1
M  V30 15 1 7 15 CFG=1
M  V30 16 1 16 6
M  V30 17 1 17 8
M  V30 18 1 18 1
M  V30 END BOND
M  V30 END CTAB
M  END
$$$$
R-group 1089 (23238-1)
     RDKit          3D

  0  0  0  0  0  0  0  0  0  0999 V3000
M  V30 BEGIN CTAB
M  V30 COUNTS 16 17 0 0 1
M  V30 BEGIN ATOM
M  V30 1 C 73.577000 54.683400 42.476700 0 CFG=1
M  V30 2 C 74.805000 55.209900 43.313700 0
M  V30 3 C 75.357500 56.466000 42.624000 0
M  V30 4 N 74.725400 56.352900 41.348700 0
M  V30 5 C 74.872500 56.858000 40.138200 0
M  V30 6 N 73.899600 56.513000 39.322400 0
M  V30 7 C 73.119500 55.620700 40.027300 0
M  V30 8 C 73.703700 55.468300 41.255500 0
M  V30 9 H 72.644100 55.014700 42.925700 0
M  V30 10 H 74.592200 55.258400 44.379400 0
M  V30 11 H 75.669400 54.560800 43.232800 0
M  V30 12 H 75.027100 57.384100 43.110700 0
M  V30 13 H 76.445700 56.455400 42.522000 0
M  V30 14 H 75.655900 57.554400 39.874300 0
M  V30 15 H 72.259900 55.154800 39.571400 0
M  V30 16 R 73.478400 53.144200 42.249000 0
M  V30 END ATOM
M  V30 BEGIN BOND
M  V30 1 1 2 1
M  V30 2 1 3 2
M  V30 3 1 4 3
M  V30 4 1 5 4
M  V30 5 2 6 5
M  V30 6 1 7 6
M  V30 7 1 8 1
M  V30 8 1 8 4
M  V30 9 2 8 7
M  V30 10 1 1 9 CFG=1
M  V30 11 1 10 2
M  V30 12 1 11 2
M  V30 13 1 12 3
M  V30 14 1 13 3
M  V30 15 1 14 5
M  V30 16 1 15 7
M  V30 17 1 16 1
M  V30 END BOND
M  V30 END CTAB
M  END
$$$$
R-group 1090 (2045-1)
     RDKit          3D

  0  0  0  0  0  0  0  0  0  0999 V3000
M  V30 BEGIN CTAB
M  V30 COUNTS 11 11 0 0 1
M  V30 BEGIN ATOM
M  V30 1 C 72.990500 54.541100 41.975400 0
M  V30 2 N 74.075100 55.490500 41.941200 0
M  V30 3 C 74.871900 55.901500 42.924600 0
M  V30 4 N 75.764100 56.793800 42.526200 0
M  V30 5 C 75.465500 56.857700 41.197700 0
M  V30 6 N 74.430100 56.126900 40.803500 0
M  V30 7 H 72.267500 54.848900 41.227300 0
M  V30 8 H 72.482100 54.592100 42.924800 0
M  V30 9 H 74.778500 55.541400 43.934800 0
M  V30 10 H 76.018600 57.485900 40.508800 0
M  V30 11 R 73.415100 53.127300 41.608100 0
M  V30 END ATOM
M  V30 BEGIN BOND
M  V30 1 1 2 1
M  V30 2 1 3 2
M  V30 3 2 4 3
M  V30 4 1 5 4
M  V30 5 1 6 2
M  V30 6 2 6 5
M  V30 7 1 7 1
M  V30 8 1 8 1
M  V30 9 1 9 3
M  V30 10 1 10 5
M  V30 11 1 11 1
M  V30 END BOND
M  V30 END CTAB
M  END
$$$$
R-group 1091 (2315-1)
     RDKit          3D

  0  0  0  0  0  0  0  0  0  0999 V3000
M  V30 BEGIN CTAB
M  V30 COUNTS 22 22 0 0 1
M  V30 BEGIN ATOM
M  V30 1 C 72.756200 56.352500 43.449800 0
M  V30 2 O 73.997400 55.860900 42.978200 0
M  V30 3 C 74.143200 55.282800 41.696700 0
M  V30 4 C 75.672100 55.369000 41.589500 0
M  V30 5 C 76.201400 56.782300 41.796000 0
M  V30 6 C 75.670600 57.657700 40.709600 0
M  V30 7 C 74.096400 57.647300 40.681400 0
M  V30 8 C 73.566200 56.202200 40.581000 0
M  V30 9 H 72.840100 56.510400 44.521400 0
M  V30 10 H 72.480500 57.309900 43.016500 0
M  V30 11 H 71.935900 55.655800 43.324700 0
M  V30 12 H 76.061800 54.786400 42.391100 0
M  V30 13 H 76.070600 54.969600 40.659100 0
M  V30 14 H 75.948800 57.185700 42.777300 0
M  V30 15 H 77.272200 56.850400 41.726700 0
M  V30 16 H 76.193300 58.576200 40.924700 0
M  V30 17 H 76.040000 57.314000 39.747600 0
M  V30 18 H 73.729800 58.161600 41.563400 0
M  V30 19 H 73.672100 58.185100 39.829100 0
M  V30 20 H 73.877100 55.814800 39.611500 0
M  V30 21 H 72.482300 56.202400 40.525000 0
M  V30 22 R 73.624900 53.786800 41.758100 0
M  V30 END ATOM
M  V30 BEGIN BOND
M  V30 1 1 2 1
M  V30 2 1 3 2
M  V30 3 1 4 3
M  V30 4 1 5 4
M  V30 5 1 6 5
M  V30 6 1 7 6
M  V30 7 1 8 3
M  V30 8 1 8 7
M  V30 9 1 9 1
M  V30 10 1 10 1
M  V30 11 1 11 1
M  V30 12 1 12 4
M  V30 13 1 13 4
M  V30 14 1 14 5
M  V30 15 1 15 5
M  V30 16 1 16 6
M  V30 17 1 17 6
M  V30 18 1 18 7
M  V30 19 1 19 7
M  V30 20 1 20 8
M  V30 21 1 21 8
M  V30 22 1 22 3
M  V30 END BOND
M  V30 END CTAB
M  END
$$$$
R-group 1092 (43291-1)
     RDKit          3D

  0  0  0  0  0  0  0  0  0  0999 V3000
M  V30 BEGIN CTAB
M  V30 COUNTS 13 12 0 0 1
M  V30 BEGIN ATOM
M  V30 1 C 73.326300 55.143900 42.587400 0
M  V30 2 C 73.824400 56.392100 41.815100 0 CFG=1
M  V30 3 N 73.460600 57.605800 42.525000 0
M  V30 4 C 75.351600 56.358900 41.699600 0
M  V30 5 F 75.882400 57.257900 40.922300 0
M  V30 6 F 75.914900 56.446700 42.901400 0
M  V30 7 F 75.669600 55.248200 41.104300 0
M  V30 8 H 72.300100 55.264000 42.924300 0
M  V30 9 H 73.897400 55.153500 43.512700 0
M  V30 10 H 73.355900 56.449700 40.836500 0
M  V30 11 H 73.893700 57.584100 43.437500 0
M  V30 12 H 73.858400 58.402800 42.041900 0
M  V30 13 R 73.409400 53.734000 41.899800 0
M  V30 END ATOM
M  V30 BEGIN BOND
M  V30 1 1 2 1
M  V30 2 1 3 2
M  V30 3 1 4 2
M  V30 4 1 5 4
M  V30 5 1 6 4
M  V30 6 1 7 4
M  V30 7 1 8 1
M  V30 8 1 9 1
M  V30 9 1 2 10 CFG=3
M  V30 10 1 11 3
M  V30 11 1 12 3
M  V30 12 1 13 1
M  V30 END BOND
M  V30 END CTAB
M  END
$$$$
R-group 1093 (42427-1)
     RDKit          3D

  0  0  0  0  0  0  0  0  0  0999 V3000
M  V30 BEGIN CTAB
M  V30 COUNTS 17 18 0 0 1
M  V30 BEGIN ATOM
M  V30 1 O 73.273400 54.433600 42.124900 0
M  V30 2 C 73.709300 55.485900 41.278600 0 CFG=1
M  V30 3 C 72.737600 55.639400 40.080000 0
M  V30 4 C 72.397500 57.070300 39.989400 0 CFG=2
M  V30 5 C 73.495200 58.058000 39.724000 0
M  V30 6 C 73.006300 57.814600 41.135500 0 CFG=2
M  V30 7 C 73.649800 56.813900 42.059800 0
M  V30 8 H 74.734800 55.319800 40.937200 0
M  V30 9 H 73.167800 55.350800 39.122400 0
M  V30 10 H 71.817500 55.071800 40.219100 0
M  V30 11 H 71.370700 57.252400 39.692100 0
M  V30 12 H 74.465300 57.657100 39.434900 0
M  V30 13 H 73.278800 59.040900 39.319400 0
M  V30 14 H 72.440700 58.618000 41.604200 0
M  V30 15 H 73.025600 56.717500 42.948300 0
M  V30 16 H 74.635800 57.155600 42.378700 0
M  V30 17 R 73.494100 53.086400 41.717800 0
M  V30 END ATOM
M  V30 BEGIN BOND
M  V30 1 1 2 1
M  V30 2 1 3 2
M  V30 3 1 4 3
M  V30 4 1 5 4
M  V30 5 1 6 4
M  V30 6 1 6 5
M  V30 7 1 7 2
M  V30 8 1 7 6
M  V30 9 1 2 8 CFG=3
M  V30 10 1 9 3
M  V30 11 1 10 3
M  V30 12 1 4 11 CFG=3
M  V30 13 1 12 5
M  V30 14 1 13 5
M  V30 15 1 6 14 CFG=1
M  V30 16 1 15 7
M  V30 17 1 16 7
M  V30 18 1 17 1
M  V30 END BOND
M  V30 END CTAB
M  END
$$$$
R-group 1094 (24825-1)
     RDKit          3D

  0  0  0  0  0  0  0  0  0  0999 V3000
M  V30 BEGIN CTAB
M  V30 COUNTS 17 17 0 0 1
M  V30 BEGIN ATOM
M  V30 1 O 73.645100 54.815400 42.032100 0
M  V30 2 C 74.851100 55.488600 41.665100 0 CFG=2
M  V30 3 C 75.126100 56.436700 42.832400 0
M  V30 4 C 73.934800 57.395800 43.053500 0
M  V30 5 C 73.272200 57.896400 41.754800 0
M  V30 6 O 72.472300 58.842700 41.785600 0
M  V30 7 N 73.536700 57.258000 40.602700 0
M  V30 8 C 74.666000 56.367400 40.415200 0
M  V30 9 H 75.686200 54.808000 41.528700 0
M  V30 10 H 75.313900 55.849400 43.725900 0
M  V30 11 H 76.035600 57.005100 42.643400 0
M  V30 12 H 73.159900 56.876600 43.619100 0
M  V30 13 H 74.251200 58.230500 43.674200 0
M  V30 14 H 75.561700 56.971000 40.255200 0
M  V30 15 H 74.529300 55.831000 39.481500 0
M  V30 16 H 73.056300 57.573700 39.774500 0
M  V30 17 R 73.516700 53.431700 41.751900 0
M  V30 END ATOM
M  V30 BEGIN BOND
M  V30 1 1 2 1
M  V30 2 1 3 2
M  V30 3 1 4 3
M  V30 4 1 5 4
M  V30 5 2 6 5
M  V30 6 1 7 5
M  V30 7 1 8 2
M  V30 8 1 8 7
M  V30 9 1 2 9 CFG=3
M  V30 10 1 10 3
M  V30 11 1 11 3
M  V30 12 1 12 4
M  V30 13 1 13 4
M  V30 14 1 14 8
M  V30 15 1 15 8
M  V30 16 1 16 7
M  V30 17 1 17 1
M  V30 END BOND
M  V30 END CTAB
M  END
$$$$
R-group 1095 (8827-1)
     RDKit          3D

  0  0  0  0  0  0  0  0  0  0999 V3000
M  V30 BEGIN CTAB
M  V30 COUNTS 14 14 0 0 1
M  V30 BEGIN ATOM
M  V30 1 C 73.555800 54.715800 42.768000 0
M  V30 2 C 74.269000 55.638000 41.875100 0
M  V30 3 C 75.513000 56.137300 42.063200 0
M  V30 4 N 75.714600 56.860800 40.926900 0
M  V30 5 C 76.825300 57.740000 40.653400 0
M  V30 6 N 74.624000 56.857000 40.124800 0
M  V30 7 N 73.733300 56.130500 40.692200 0
M  V30 8 H 72.539700 55.077800 42.923200 0
M  V30 9 H 74.072300 54.789400 43.724200 0
M  V30 10 H 76.231300 56.053400 42.863400 0
M  V30 11 H 77.249100 58.057900 41.600900 0
M  V30 12 H 77.641100 57.275800 40.123800 0
M  V30 13 H 76.472400 58.585400 40.068200 0
M  V30 14 R 73.508100 53.255300 42.268500 0
M  V30 END ATOM
M  V30 BEGIN BOND
M  V30 1 1 2 1
M  V30 2 2 3 2
M  V30 3 1 4 3
M  V30 4 1 5 4
M  V30 5 1 6 4
M  V30 6 1 7 2
M  V30 7 2 7 6
M  V30 8 1 8 1
M  V30 9 1 9 1
M  V30 10 1 10 3
M  V30 11 1 11 5
M  V30 12 1 12 5
M  V30 13 1 13 5
M  V30 14 1 14 1
M  V30 END BOND
M  V30 END CTAB
M  END
$$$$
R-group 1096 (10293-1)
     RDKit          3D

  0  0  0  0  0  0  0  0  0  0999 V3000
M  V30 BEGIN CTAB
M  V30 COUNTS 16 15 0 0 1
M  V30 BEGIN ATOM
M  V30 1 C 73.672200 54.802600 41.438400 0
M  V30 2 O 73.883600 55.236700 40.305800 0
M  V30 3 N 73.672200 55.573200 42.524500 0
M  V30 4 C 74.143200 56.938600 42.584300 0 CFG=2
M  V30 5 C 73.560800 57.823100 41.471200 0
M  V30 6 C 75.665500 56.799400 42.679700 0
M  V30 7 N 76.072200 56.058200 43.724500 0
M  V30 8 O 76.415800 57.249700 41.810600 0
M  V30 9 H 73.782700 57.351300 43.525100 0
M  V30 10 H 73.672500 58.863800 41.731100 0
M  V30 11 H 74.039700 57.658100 40.506200 0
M  V30 12 H 72.492800 57.652200 41.342700 0
M  V30 13 H 75.399200 55.672500 44.367300 0
M  V30 14 H 73.364000 55.159100 43.399800 0
M  V30 15 H 77.055600 55.883600 43.844700 0
M  V30 16 R 73.405300 53.328800 41.709500 0
M  V30 END ATOM
M  V30 BEGIN BOND
M  V30 1 2 2 1
M  V30 2 1 3 1
M  V30 3 1 4 3
M  V30 4 1 5 4
M  V30 5 1 6 4
M  V30 6 1 7 6
M  V30 7 2 8 6
M  V30 8 1 4 9 CFG=1
M  V30 9 1 10 5
M  V30 10 1 11 5
M  V30 11 1 12 5
M  V30 12 1 13 7
M  V30 13 1 14 3
M  V30 14 1 15 7
M  V30 15 1 16 1
M  V30 END BOND
M  V30 END CTAB
M  END
$$$$
R-group 1097 (550-1)
     RDKit          3D

  0  0  0  0  0  0  0  0  0  0999 V3000
M  V30 BEGIN CTAB
M  V30 COUNTS 19 19 0 0 1
M  V30 BEGIN ATOM
M  V30 1 C 73.888300 54.678400 41.835000 0
M  V30 2 O 73.674200 55.284800 40.787700 0
M  V30 3 N 74.472400 55.186000 42.924800 0
M  V30 4 C 75.132800 56.442600 43.176400 0
M  V30 5 C 76.129900 56.789500 42.099100 0
M  V30 6 C 75.380500 57.649200 41.112300 0
M  V30 7 C 74.012000 58.031600 41.763700 0
M  V30 8 C 74.153300 57.610200 43.212100 0
M  V30 9 H 75.674300 56.327500 44.119100 0
M  V30 10 H 76.872400 57.427300 42.561300 0
M  V30 11 H 76.623700 55.938300 41.638300 0
M  V30 12 H 76.072300 58.457700 40.924700 0
M  V30 13 H 75.233500 57.147000 40.156600 0
M  V30 14 H 73.671600 59.056300 41.725200 0
M  V30 15 H 73.186100 57.504200 41.297800 0
M  V30 16 H 73.203900 57.397400 43.706300 0
M  V30 17 H 74.637500 58.435000 43.723800 0
M  V30 18 H 74.446600 54.575500 43.726500 0
M  V30 19 R 73.541900 53.200900 41.958100 0
M  V30 END ATOM
M  V30 BEGIN BOND
M  V30 1 2 2 1
M  V30 2 1 3 1
M  V30 3 1 4 3
M  V30 4 1 5 4
M  V30 5 1 6 5
M  V30 6 1 7 6
M  V30 7 1 8 4
M  V30 8 1 8 7
M  V30 9 1 9 4
M  V30 10 1 10 5
M  V30 11 1 11 5
M  V30 12 1 12 6
M  V30 13 1 13 6
M  V30 14 1 14 7
M  V30 15 1 15 7
M  V30 16 1 16 8
M  V30 17 1 17 8
M  V30 18 1 18 3
M  V30 19 1 19 1
M  V30 END BOND
M  V30 END CTAB
M  END
$$$$
R-group 1098 (12635-2)
     RDKit          3D

  0  0  0  0  0  0  0  0  0  0999 V3000
M  V30 BEGIN CTAB
M  V30 COUNTS 13 13 0 0 1
M  V30 BEGIN ATOM
M  V30 1 S 74.313900 55.553600 41.552000 0 CFG=2
M  V30 2 N 74.070400 56.209500 42.924800 0
M  V30 3 O 75.638300 55.658100 40.925200 0
M  V30 4 C 73.045700 56.365200 40.481600 0
M  V30 5 C 73.010200 57.875900 40.661100 0
M  V30 6 C 73.640900 57.259700 39.445200 0
M  V30 7 H 74.708300 55.869100 43.643600 0
M  V30 8 H 72.191000 55.771400 40.164800 0
M  V30 9 H 72.065200 58.386500 40.526300 0
M  V30 10 H 73.670800 58.334000 41.392900 0
M  V30 11 H 74.719800 57.312900 39.326500 0
M  V30 12 H 73.053600 57.258500 38.552300 0
M  V30 13 R 73.738700 53.781100 41.755900 0
M  V30 END ATOM
M  V30 BEGIN BOND
M  V30 1 2 2 1
M  V30 2 2 3 1
M  V30 3 1 4 1
M  V30 4 1 5 4
M  V30 5 1 6 4
M  V30 6 1 6 5
M  V30 7 1 7 2
M  V30 8 1 8 4
M  V30 9 1 9 5
M  V30 10 1 10 5
M  V30 11 1 11 6
M  V30 12 1 12 6
M  V30 13 1 1 13 CFG=1
M  V30 END BOND
M  V30 END CTAB
M  END
$$$$
R-group 1099 (23605-1)
     RDKit          3D

  0  0  0  0  0  0  0  0  0  0999 V3000
M  V30 BEGIN CTAB
M  V30 COUNTS 18 18 0 0 1
M  V30 BEGIN ATOM
M  V30 1 C 73.546200 54.670400 42.812000 0
M  V30 2 N 74.246200 55.540100 41.944900 0
M  V30 3 C 75.466100 56.125900 42.144000 0
M  V30 4 C 75.706800 56.859200 41.031100 0
M  V30 5 C 76.831100 57.801500 40.756100 0
M  V30 6 C 74.553700 56.656900 40.233300 0
M  V30 7 C 74.208900 57.227400 38.924800 0
M  V30 8 N 73.672600 55.896400 40.796800 0
M  V30 9 H 72.530200 55.052100 42.924500 0
M  V30 10 H 74.072300 54.781400 43.757200 0
M  V30 11 H 76.043200 55.982700 43.046300 0
M  V30 12 H 77.191000 57.784500 39.729000 0
M  V30 13 H 76.472400 58.809500 40.924800 0
M  V30 14 H 77.670500 57.644300 41.422300 0
M  V30 15 H 74.871700 58.048200 38.677900 0
M  V30 16 H 74.276700 56.461200 38.149000 0
M  V30 17 H 73.196300 57.623200 38.928300 0
M  V30 18 R 73.514200 53.204500 42.334500 0
M  V30 END ATOM
M  V30 BEGIN BOND
M  V30 1 1 2 1
M  V30 2 1 3 2
M  V30 3 2 4 3
M  V30 4 1 5 4
M  V30 5 1 6 4
M  V30 6 1 7 6
M  V30 7 1 8 2
M  V30 8 2 8 6
M  V30 9 1 9 1
M  V30 10 1 10 1
M  V30 11 1 11 3
M  V30 12 1 12 5
M  V30 13 1 13 5
M  V30 14 1 14 5
M  V30 15 1 15 7
M  V30 16 1 16 7
M  V30 17 1 17 7
M  V30 18 1 18 1
M  V30 END BOND
M  V30 END CTAB
M  END
$$$$
R-group 1100 (41197-1)
     RDKit          3D

  0  0  0  0  0  0  0  0  0  0999 V3000
M  V30 BEGIN CTAB
M  V30 COUNTS 14 14 0 0 1
M  V30 BEGIN ATOM
M  V30 1 C 73.829700 55.113100 41.780900 0 CFG=1
M  V30 2 C 73.862000 55.859200 43.115000 0
M  V30 3 C 74.962800 56.873300 42.924300 0
M  V30 4 F 74.521500 58.058000 43.325100 0
M  V30 5 F 76.057800 56.531200 43.606600 0
M  V30 6 C 75.254000 56.875200 41.434900 0
M  V30 7 N 75.063200 55.482100 41.097500 0
M  V30 8 H 73.023500 55.554600 41.193700 0
M  V30 9 H 72.895800 56.327500 43.306300 0
M  V30 10 H 74.095800 55.257200 43.982800 0
M  V30 11 H 74.522700 57.477800 40.894700 0
M  V30 12 H 76.255100 57.233600 41.192300 0
M  V30 13 H 75.816100 54.957100 41.518100 0
M  V30 14 R 73.597000 53.585200 41.843000 0
M  V30 END ATOM
M  V30 BEGIN BOND
M  V30 1 1 2 1
M  V30 2 1 3 2
M  V30 3 1 4 3
M  V30 4 1 5 3
M  V30 5 1 6 3
M  V30 6 1 7 1
M  V30 7 1 7 6
M  V30 8 1 1 8 CFG=3
M  V30 9 1 9 2
M  V30 10 1 10 2
M  V30 11 1 11 6
M  V30 12 1 12 6
M  V30 13 1 13 7
M  V30 14 1 14 1
M  V30 END BOND
M  V30 END CTAB
M  END
$$$$
R-group 1101 (9526-1)
     RDKit          3D

  0  0  0  0  0  0  0  0  0  0999 V3000
M  V30 BEGIN CTAB
M  V30 COUNTS 17 16 0 0 1
M  V30 BEGIN ATOM
M  V30 1 C 73.492400 57.698500 40.266000 0
M  V30 2 C 73.129100 58.273500 41.652800 0
M  V30 3 C 73.825600 57.665900 42.866200 0
M  V30 4 N 73.634300 56.256400 42.924600 0
M  V30 5 C 74.159300 55.330500 42.152200 0
M  V30 6 O 75.233000 55.406400 41.555300 0
M  V30 7 N 73.284000 54.328500 42.124500 0
M  V30 8 H 73.272200 58.417100 39.478500 0
M  V30 9 H 74.550700 57.456200 40.191400 0
M  V30 10 H 72.932100 56.787100 40.047700 0
M  V30 11 H 72.072600 58.158500 41.789600 0
M  V30 12 H 73.272100 59.335400 41.725000 0
M  V30 13 H 73.365900 58.078700 43.760400 0
M  V30 14 H 74.873500 57.878100 42.923800 0
M  V30 15 H 72.869700 55.951700 43.513100 0
M  V30 16 H 72.457200 54.441200 42.692300 0
M  V30 17 R 73.499100 53.016300 41.619300 0
M  V30 END ATOM
M  V30 BEGIN BOND
M  V30 1 1 2 1
M  V30 2 1 3 2
M  V30 3 1 4 3
M  V30 4 1 5 4
M  V30 5 2 6 5
M  V30 6 1 7 5
M  V30 7 1 8 1
M  V30 8 1 9 1
M  V30 9 1 10 1
M  V30 10 1 11 2
M  V30 11 1 12 2
M  V30 12 1 13 3
M  V30 13 1 14 3
M  V30 14 1 15 4
M  V30 15 1 16 7
M  V30 16 1 17 7
M  V30 END BOND
M  V30 END CTAB
M  END
$$$$
R-group 1102 (24575-1)
     RDKit          3D

  0  0  0  0  0  0  0  0  0  0999 V3000
M  V30 BEGIN CTAB
M  V30 COUNTS 13 12 0 0 1
M  V30 BEGIN ATOM
M  V30 1 O 73.671400 54.907600 42.125900 0
M  V30 2 C 74.942000 55.537300 42.055700 0
M  V30 3 C 74.745300 56.878300 41.332900 0 CFG=2
M  V30 4 F 73.762400 57.569600 41.919300 0
M  V30 5 C 74.465000 56.719500 39.827700 0
M  V30 6 O 73.238300 56.060700 39.617900 0
M  V30 7 H 75.323100 55.687700 43.065700 0
M  V30 8 H 75.674400 54.938400 41.521600 0
M  V30 9 H 75.648800 57.476900 41.453800 0
M  V30 10 H 74.417900 57.665900 39.306600 0
M  V30 11 H 75.270300 56.161700 39.354400 0
M  V30 12 H 73.100700 55.489900 40.362400 0
M  V30 13 R 73.564000 53.485700 42.099200 0
M  V30 END ATOM
M  V30 BEGIN BOND
M  V30 1 1 2 1
M  V30 2 1 3 2
M  V30 3 1 4 3
M  V30 4 1 5 3
M  V30 5 1 6 5
M  V30 6 1 7 2
M  V30 7 1 8 2
M  V30 8 1 3 9 CFG=3
M  V30 9 1 10 5
M  V30 10 1 11 5
M  V30 11 1 12 6
M  V30 12 1 13 1
M  V30 END BOND
M  V30 END CTAB
M  END
$$$$
R-group 1103 (16249-2)
     RDKit          3D

  0  0  0  0  0  0  0  0  0  0999 V3000
M  V30 BEGIN CTAB
M  V30 COUNTS 16 16 0 0 1
M  V30 BEGIN ATOM
M  V30 1 C 74.473900 56.729100 39.157600 0
M  V30 2 C 75.617900 56.852100 40.177300 0
M  V30 3 O 75.096000 56.944400 41.483100 0
M  V30 4 C 75.014600 55.695300 42.116800 0 CFG=1
M  V30 5 C 74.132400 55.784800 43.324700 0
M  V30 6 C 73.654700 55.050400 42.092600 0 CFG=2
M  V30 7 H 74.860700 56.526700 38.160400 0
M  V30 8 H 73.783000 55.925900 39.400100 0
M  V30 9 H 73.894700 57.651600 39.116600 0
M  V30 10 H 76.192200 57.756200 39.983700 0
M  V30 11 H 76.327400 56.025800 40.124700 0
M  V30 12 H 75.931300 55.118300 42.158600 0
M  V30 13 H 73.647100 56.735800 43.534900 0
M  V30 14 H 74.471900 55.243000 44.201400 0
M  V30 15 H 72.901300 55.589100 41.526600 0
M  V30 16 R 73.478800 53.539500 41.978500 0
M  V30 END ATOM
M  V30 BEGIN BOND
M  V30 1 1 2 1
M  V30 2 1 3 2
M  V30 3 1 4 3
M  V30 4 1 5 4
M  V30 5 1 6 4
M  V30 6 1 6 5
M  V30 7 1 7 1
M  V30 8 1 8 1
M  V30 9 1 9 1
M  V30 10 1 10 2
M  V30 11 1 11 2
M  V30 12 1 4 12 CFG=1
M  V30 13 1 13 5
M  V30 14 1 14 5
M  V30 15 1 6 15 CFG=3
M  V30 16 1 16 6
M  V30 END BOND
M  V30 END CTAB
M  END
$$$$
R-group 1104 (32793-4)
     RDKit          3D

  0  0  0  0  0  0  0  0  0  0999 V3000
M  V30 BEGIN CTAB
M  V30 COUNTS 16 16 0 0 1
M  V30 BEGIN ATOM
M  V30 1 C 74.768400 55.275600 42.186000 0 CFG=1
M  V30 2 C 75.826300 55.852100 41.213800 0
M  V30 3 O 75.729700 57.258000 41.324700 0
M  V30 4 C 74.689100 57.584600 42.239300 0
M  V30 5 C 73.787700 56.405700 42.178300 0 CFG=2
M  V30 6 C 72.813300 56.433300 43.368000 0
M  V30 7 F 73.272100 56.529700 40.952200 0
M  V30 8 H 75.229500 55.285800 43.175500 0
M  V30 9 H 76.857400 55.658000 41.465100 0
M  V30 10 H 75.640200 55.623400 40.169800 0
M  V30 11 H 74.086200 58.458500 41.978200 0
M  V30 12 H 75.101200 57.675900 43.246800 0
M  V30 13 H 73.272200 56.130200 44.294400 0
M  V30 14 H 72.472200 57.450300 43.540600 0
M  V30 15 H 71.985400 55.729000 43.324700 0
M  V30 16 R 74.095900 53.878200 41.976400 0
M  V30 END ATOM
M  V30 BEGIN BOND
M  V30 1 1 2 1
M  V30 2 1 3 2
M  V30 3 1 4 3
M  V30 4 1 5 1
M  V30 5 1 5 4
M  V30 6 1 6 5
M  V30 7 1 5 7 CFG=3
M  V30 8 1 1 8 CFG=1
M  V30 9 1 9 2
M  V30 10 1 10 2
M  V30 11 1 11 4
M  V30 12 1 12 4
M  V30 13 1 13 6
M  V30 14 1 14 6
M  V30 15 1 15 6
M  V30 16 1 16 1
M  V30 END BOND
M  V30 END CTAB
M  END
$$$$
R-group 1105 (20763-3)
     RDKit          3D

  0  0  0  0  0  0  0  0  0  0999 V3000
M  V30 BEGIN CTAB
M  V30 COUNTS 18 19 0 0 1
M  V30 BEGIN ATOM
M  V30 1 N 73.837200 54.943700 42.166200 0
M  V30 2 C 73.562000 55.827300 43.295700 0
M  V30 3 C 74.189000 57.176800 42.888000 0
M  V30 4 C 75.338400 56.801600 42.003800 0 CFG=1
M  V30 5 C 75.172200 55.325300 41.802300 0 CFG=2
M  V30 6 C 75.229600 56.180500 40.622100 0 CFG=1
M  V30 7 C 74.010500 56.352900 39.729800 0
M  V30 8 F 72.910800 56.858000 40.267700 0
M  V30 9 F 74.472200 57.257900 38.960600 0
M  V30 10 F 73.678600 55.324100 38.957100 0
M  V30 11 H 72.495500 55.925700 43.498500 0
M  V30 12 H 74.072300 55.434800 44.168700 0
M  V30 13 H 73.486500 57.809100 42.347600 0
M  V30 14 H 74.556200 57.761500 43.724700 0
M  V30 15 H 76.318700 57.156700 42.316700 0
M  V30 16 H 76.045400 54.734500 42.053100 0
M  V30 17 H 76.175000 56.108200 40.100300 0
M  V30 18 R 73.571200 53.506000 42.236100 0
M  V30 END ATOM
M  V30 BEGIN BOND
M  V30 1 1 2 1
M  V30 2 1 3 2
M  V30 3 1 4 3
M  V30 4 1 5 1
M  V30 5 1 5 4
M  V30 6 1 6 4
M  V30 7 1 6 5
M  V30 8 1 7 6
M  V30 9 1 8 7
M  V30 10 1 9 7
M  V30 11 1 10 7
M  V30 12 1 11 2
M  V30 13 1 12 2
M  V30 14 1 13 3
M  V30 15 1 14 3
M  V30 16 1 4 15 CFG=3
M  V30 17 1 5 16 CFG=3
M  V30 18 1 6 17 CFG=3
M  V30 19 1 18 1
M  V30 END BOND
M  V30 END CTAB
M  END
$$$$
R-group 1106 (2237-1)
     RDKit          3D

  0  0  0  0  0  0  0  0  0  0999 V3000
M  V30 BEGIN CTAB
M  V30 COUNTS 12 11 0 0 1
M  V30 BEGIN ATOM
M  V30 1 C 74.053900 55.509900 41.931200 0
M  V30 2 C 73.569600 56.129700 43.256000 0
M  V30 3 C 75.576600 55.778200 41.871600 0
M  V30 4 C 73.478500 56.302600 40.848100 0
M  V30 5 N 73.027300 56.928900 39.995300 0
M  V30 6 H 74.065900 55.651900 44.104000 0
M  V30 7 H 73.777500 57.195400 43.327600 0
M  V30 8 H 72.495000 56.039400 43.390300 0
M  V30 9 H 76.072200 55.378800 42.741700 0
M  V30 10 H 76.032500 55.373900 40.974200 0
M  V30 11 H 75.806700 56.847500 41.866500 0
M  V30 12 R 73.614200 53.999700 41.796500 0
M  V30 END ATOM
M  V30 BEGIN BOND
M  V30 1 1 2 1
M  V30 2 1 3 1
M  V30 3 1 4 1
M  V30 4 3 5 4
M  V30 5 1 6 2
M  V30 6 1 7 2
M  V30 7 1 8 2
M  V30 8 1 9 3
M  V30 9 1 10 3
M  V30 10 1 11 3
M  V30 11 1 12 1
M  V30 END BOND
M  V30 END CTAB
M  END
$$$$
R-group 1107 (1144-1)
     RDKit          3D

  0  0  0  0  0  0  0  0  0  0999 V3000
M  V30 BEGIN CTAB
M  V30 COUNTS 14 13 0 0 1
M  V30 BEGIN ATOM
M  V30 1 S 74.639400 55.481400 42.040000 0
M  V30 2 O 75.317400 55.658000 43.324700 0
M  V30 3 O 75.410400 55.667800 40.807800 0
M  V30 4 C 73.272200 56.699800 41.974700 0
M  V30 5 C 72.746000 56.876800 40.524700 0
M  V30 6 C 73.754600 58.058000 42.451400 0
M  V30 7 H 72.563500 56.386500 42.745300 0
M  V30 8 H 72.072200 57.729000 40.478100 0
M  V30 9 H 73.556300 57.097800 39.829100 0
M  V30 10 H 72.202300 56.024200 40.124700 0
M  V30 11 H 72.922500 58.760100 42.524600 0
M  V30 12 H 74.248000 58.011900 43.420100 0
M  V30 13 H 74.457400 58.446400 41.724700 0
M  V30 14 R 73.824800 53.791300 42.043200 0
M  V30 END ATOM
M  V30 BEGIN BOND
M  V30 1 2 2 1
M  V30 2 2 3 1
M  V30 3 1 4 1
M  V30 4 1 5 4
M  V30 5 1 6 4
M  V30 6 1 7 4
M  V30 7 1 8 5
M  V30 8 1 9 5
M  V30 9 1 10 5
M  V30 10 1 11 6
M  V30 11 1 12 6
M  V30 12 1 13 6
M  V30 13 1 14 1
M  V30 END BOND
M  V30 END CTAB
M  END
$$$$
R-group 1108 (13581-2)
     RDKit          3D

  0  0  0  0  0  0  0  0  0  0999 V3000
M  V30 BEGIN CTAB
M  V30 COUNTS 16 15 0 0 1
M  V30 BEGIN ATOM
M  V30 1 O 73.271800 54.746900 42.247400 0
M  V30 2 C 73.958300 55.927000 41.836100 0 CFG=1
M  V30 3 C 73.398900 57.113900 42.653900 0
M  V30 4 C 75.464100 55.742400 42.012000 0 CFG=1
M  V30 5 C 76.281300 56.835700 41.305100 0
M  V30 6 O 75.672300 55.662700 43.406000 0
M  V30 7 H 73.738600 56.135200 40.789100 0
M  V30 8 H 74.072900 57.968400 42.662600 0
M  V30 9 H 72.472400 57.480600 42.228300 0
M  V30 10 H 73.224100 56.829200 43.695300 0
M  V30 11 H 75.796800 54.810100 41.574200 0
M  V30 12 H 76.399100 56.589500 40.249000 0
M  V30 13 H 75.823000 57.821600 41.324800 0
M  V30 14 H 77.272300 56.925900 41.728000 0
M  V30 15 H 76.600900 55.590400 43.571400 0
M  V30 16 R 73.518400 53.471300 41.667600 0
M  V30 END ATOM
M  V30 BEGIN BOND
M  V30 1 1 2 1
M  V30 2 1 3 2
M  V30 3 1 4 2
M  V30 4 1 5 4
M  V30 5 1 6 4
M  V30 6 1 2 7 CFG=3
M  V30 7 1 8 3
M  V30 8 1 9 3
M  V30 9 1 10 3
M  V30 10 1 4 11 CFG=3
M  V30 11 1 12 5
M  V30 12 1 13 5
M  V30 13 1 14 5
M  V30 14 1 15 6
M  V30 15 1 16 1
M  V30 END BOND
M  V30 END CTAB
M  END
$$$$
R-group 1109 (10387-2)
     RDKit          3D

  0  0  0  0  0  0  0  0  0  0999 V3000
M  V30 BEGIN CTAB
M  V30 COUNTS 23 24 0 0 1
M  V30 BEGIN ATOM
M  V30 1 C 74.141000 54.803600 42.227700 0
M  V30 2 C 75.191400 55.305100 42.916100 0
M  V30 3 C 75.534800 56.783100 42.828200 0
M  V30 4 C 74.387700 57.430100 42.047000 0 CFG=2
M  V30 5 C 72.993200 57.011800 42.481200 0
M  V30 6 C 73.272300 55.814700 41.516700 0 CFG=1
M  V30 7 C 74.023800 56.837000 40.676500 0
M  V30 8 C 73.143800 57.658100 39.725700 0
M  V30 9 C 75.192700 56.457000 39.829500 0
M  V30 10 H 75.840200 54.693100 43.520600 0
M  V30 11 H 75.672900 57.214100 43.819900 0
M  V30 12 H 76.480700 56.900300 42.306200 0
M  V30 13 H 74.471900 58.458000 41.869400 0
M  V30 14 H 72.889300 56.760100 43.534900 0
M  V30 15 H 72.295100 57.797200 42.202600 0
M  V30 16 H 72.472400 55.379800 40.924000 0
M  V30 17 H 72.821200 57.057000 38.876000 0
M  V30 18 H 72.237200 58.036800 40.183100 0
M  V30 19 H 73.667400 58.523100 39.323600 0
M  V30 20 H 74.868400 56.064600 38.859800 0
M  V30 21 H 75.710100 57.399100 39.724200 0
M  V30 22 H 75.886900 55.760700 40.296300 0
M  V30 23 R 73.689300 53.349600 42.134800 0
M  V30 END ATOM
M  V30 BEGIN BOND
M  V30 1 2 2 1
M  V30 2 1 3 2
M  V30 3 1 4 3
M  V30 4 1 5 4
M  V30 5 1 6 1
M  V30 6 1 6 5
M  V30 7 1 7 4
M  V30 8 1 7 6
M  V30 9 1 8 7
M  V30 10 1 9 7
M  V30 11 1 10 2
M  V30 12 1 11 3
M  V30 13 1 12 3
M  V30 14 1 4 13 CFG=3
M  V30 15 1 14 5
M  V30 16 1 15 5
M  V30 17 1 6 16 CFG=3
M  V30 18 1 17 8
M  V30 19 1 18 8
M  V30 20 1 19 8
M  V30 21 1 20 9
M  V30 22 1 21 9
M  V30 23 1 22 9
M  V30 24 1 23 1
M  V30 END BOND
M  V30 END CTAB
M  END
$$$$
R-group 1110 (706-1)
     RDKit          3D

  0  0  0  0  0  0  0  0  0  0999 V3000
M  V30 BEGIN CTAB
M  V30 COUNTS 8 7 0 0 1
M  V30 BEGIN ATOM
M  V30 1 S 74.204000 55.567700 41.638300 0
M  V30 2 C 73.599400 56.224300 43.239200 0
M  V30 3 O 75.666300 55.679500 41.654800 0
M  V30 4 O 73.467200 56.205700 40.534600 0
M  V30 5 H 73.856700 57.279000 43.322700 0
M  V30 6 H 72.521000 56.093800 43.324900 0
M  V30 7 H 74.072600 55.657900 44.039900 0
M  V30 8 R 73.694100 53.773200 41.779100 0
M  V30 END ATOM
M  V30 BEGIN BOND
M  V30 1 1 2 1
M  V30 2 2 3 1
M  V30 3 2 4 1
M  V30 4 1 5 2
M  V30 5 1 6 2
M  V30 6 1 7 2
M  V30 7 1 8 1
M  V30 END BOND
M  V30 END CTAB
M  END
$$$$
R-group 1111 (15105-2)
     RDKit          3D

  0  0  0  0  0  0  0  0  0  0999 V3000
M  V30 BEGIN CTAB
M  V30 COUNTS 11 10 0 0 1
M  V30 BEGIN ATOM
M  V30 1 N 74.645400 55.101700 42.249800 0
M  V30 2 C 73.844200 56.263700 41.915600 0 CFG=1
M  V30 3 C 74.534700 57.526300 42.408100 0
M  V30 4 C 73.672200 56.376600 40.465200 0
M  V30 5 N 73.540000 56.458200 39.324700 0
M  V30 6 H 75.438600 55.050900 41.626200 0
M  V30 7 H 72.872500 56.187600 42.402500 0
M  V30 8 H 73.918700 58.402300 42.199900 0
M  V30 9 H 74.733800 57.508100 43.475500 0
M  V30 10 H 75.488700 57.657100 41.893900 0
M  V30 11 R 73.936000 53.819800 42.248700 0
M  V30 END ATOM
M  V30 BEGIN BOND
M  V30 1 1 2 1
M  V30 2 1 3 2
M  V30 3 1 4 2
M  V30 4 3 5 4
M  V30 5 1 6 1
M  V30 6 1 2 7 CFG=1
M  V30 7 1 8 3
M  V30 8 1 9 3
M  V30 9 1 10 3
M  V30 10 1 11 1
M  V30 END BOND
M  V30 END CTAB
M  END
$$$$
R-group 1112 (93-1)
     RDKit          3D

  0  0  0  0  0  0  0  0  0  0999 V3000
M  V30 BEGIN CTAB
M  V30 COUNTS 11 10 0 0 1
M  V30 BEGIN ATOM
M  V30 1 C 74.218600 55.467300 43.057500 0
M  V30 2 C 73.062700 56.462000 42.924900 0
M  V30 3 C 75.568900 56.179000 42.826000 0
M  V30 4 H 74.224200 55.258100 44.124000 0
M  V30 5 H 72.902500 56.782100 41.895000 0
M  V30 6 H 72.150900 56.015400 43.324700 0
M  V30 7 H 73.244100 57.360100 43.516100 0
M  V30 8 H 75.825000 56.310200 41.776900 0
M  V30 9 H 75.561800 57.175000 43.270500 0
M  V30 10 H 76.380800 55.658000 43.323100 0
M  V30 11 R 73.975900 54.111500 42.281600 0
M  V30 END ATOM
M  V30 BEGIN BOND
M  V30 1 1 2 1
M  V30 2 1 3 1
M  V30 3 1 4 1
M  V30 4 1 5 2
M  V30 5 1 6 2
M  V30 6 1 7 2
M  V30 7 1 8 3
M  V30 8 1 9 3
M  V30 9 1 10 3
M  V30 10 1 11 1
M  V30 END BOND
M  V30 END CTAB
M  END
$$$$
R-group 1113 (8543-1)
     RDKit          3D

  0  0  0  0  0  0  0  0  0  0999 V3000
M  V30 BEGIN CTAB
M  V30 COUNTS 21 20 0 0 1
M  V30 BEGIN ATOM
M  V30 1 C 76.924600 57.416300 40.916200 0
M  V30 2 C 75.530500 57.041400 41.314400 0
M  V30 3 C 75.308800 55.626600 41.809800 0
M  V30 4 C 73.799200 55.335700 41.959400 0 CFG=2
M  V30 5 C 73.184500 56.017800 43.215600 0
M  V30 6 C 73.134200 57.557500 43.322100 0
M  V30 7 O 72.872300 58.204900 42.094200 0
M  V30 8 H 76.967600 58.457200 40.580600 0
M  V30 9 H 77.632800 57.259700 41.724900 0
M  V30 10 H 77.225200 56.760300 40.124700 0
M  V30 11 H 74.852800 57.260900 40.489400 0
M  V30 12 H 75.326400 57.657800 42.157900 0
M  V30 13 H 75.814400 55.479400 42.762600 0
M  V30 14 H 75.779300 54.947300 41.107900 0
M  V30 15 H 73.286500 55.796500 41.115900 0
M  V30 16 H 72.157700 55.669700 43.326000 0
M  V30 17 H 73.724100 55.658200 44.085600 0
M  V30 18 H 72.375600 57.834700 44.051100 0
M  V30 19 H 74.057100 57.961200 43.724700 0
M  V30 20 H 73.589800 58.032300 41.504000 0
M  V30 21 R 73.468000 53.807300 41.853600 0
M  V30 END ATOM
M  V30 BEGIN BOND
M  V30 1 1 2 1
M  V30 2 1 3 2
M  V30 3 1 4 3
M  V30 4 1 5 4
M  V30 5 1 6 5
M  V30 6 1 7 6
M  V30 7 1 8 1
M  V30 8 1 9 1
M  V30 9 1 10 1
M  V30 10 1 11 2
M  V30 11 1 12 2
M  V30 12 1 13 3
M  V30 13 1 14 3
M  V30 14 1 4 15 CFG=3
M  V30 15 1 16 5
M  V30 16 1 17 5
M  V30 17 1 18 6
M  V30 18 1 19 6
M  V30 19 1 20 7
M  V30 20 1 21 4
M  V30 END BOND
M  V30 END CTAB
M  END
$$$$
R-group 1114 (42760-1)
     RDKit          3D

  0  0  0  0  0  0  0  0  0  0999 V3000
M  V30 BEGIN CTAB
M  V30 COUNTS 19 18 0 0 1
M  V30 BEGIN ATOM
M  V30 1 C 76.478600 57.508000 40.999500 0
M  V30 2 O 76.356900 56.642400 42.110800 0
M  V30 3 C 75.540100 57.043100 43.186700 0
M  V30 4 C 74.068100 57.065600 42.789900 0
M  V30 5 O 73.645200 55.731200 42.593000 0
M  V30 6 C 73.942600 55.076200 41.374300 0 CFG=2
M  V30 7 C 73.198700 55.742700 40.176400 0
M  V30 8 H 77.186000 57.097900 40.278800 0
M  V30 9 H 75.537900 57.645100 40.476200 0
M  V30 10 H 76.872200 58.460600 41.322000 0
M  V30 11 H 75.840800 57.997300 43.600300 0
M  V30 12 H 75.677000 56.307100 43.980300 0
M  V30 13 H 73.865900 57.734100 41.958500 0
M  V30 14 H 73.488000 57.461600 43.620100 0
M  V30 15 H 75.000200 55.110800 41.143300 0
M  V30 16 H 73.566900 55.357000 39.226300 0
M  V30 17 H 72.122400 55.577000 40.178300 0
M  V30 18 H 73.363300 56.817000 40.120900 0
M  V30 19 R 73.609300 53.581200 41.640600 0
M  V30 END ATOM
M  V30 BEGIN BOND
M  V30 1 1 2 1
M  V30 2 1 3 2
M  V30 3 1 4 3
M  V30 4 1 5 4
M  V30 5 1 6 5
M  V30 6 1 7 6
M  V30 7 1 8 1
M  V30 8 1 9 1
M  V30 9 1 10 1
M  V30 10 1 11 3
M  V30 11 1 12 3
M  V30 12 1 13 4
M  V30 13 1 14 4
M  V30 14 1 6 15 CFG=3
M  V30 15 1 16 7
M  V30 16 1 17 7
M  V30 17 1 18 7
M  V30 18 1 19 6
M  V30 END BOND
M  V30 END CTAB
M  END
$$$$
R-group 1115 (41664-1)
     RDKit          3D

  0  0  0  0  0  0  0  0  0  0999 V3000
M  V30 BEGIN CTAB
M  V30 COUNTS 15 14 0 0 1
M  V30 BEGIN ATOM
M  V30 1 C 73.714700 54.747300 42.272300 0
M  V30 2 O 74.910000 55.263300 41.727300 0
M  V30 3 C 75.051900 56.645900 41.978100 0
M  V30 4 C 73.921600 57.472300 41.339700 0
M  V30 5 C 73.884800 57.372300 39.801700 0
M  V30 6 F 73.362000 56.209800 39.413400 0
M  V30 7 H 72.872000 55.220200 41.809000 0
M  V30 8 H 73.673200 54.974200 43.324700 0
M  V30 9 H 75.094400 56.823900 43.053100 0
M  V30 10 H 76.015700 56.965300 41.579400 0
M  V30 11 H 72.936300 57.263900 41.753600 0
M  V30 12 H 74.072200 58.474500 41.691500 0
M  V30 13 H 73.272500 58.158800 39.366500 0
M  V30 14 H 74.874100 57.447400 39.348900 0
M  V30 15 R 73.550000 53.266100 41.997800 0
M  V30 END ATOM
M  V30 BEGIN BOND
M  V30 1 1 2 1
M  V30 2 1 3 2
M  V30 3 1 4 3
M  V30 4 1 5 4
M  V30 5 1 6 5
M  V30 6 1 7 1
M  V30 7 1 8 1
M  V30 8 1 9 3
M  V30 9 1 10 3
M  V30 10 1 11 4
M  V30 11 1 12 4
M  V30 12 1 13 5
M  V30 13 1 14 5
M  V30 14 1 15 1
M  V30 END BOND
M  V30 END CTAB
M  END
$$$$
R-group 1116 (10895-1)
     RDKit          3D

  0  0  0  0  0  0  0  0  0  0999 V3000
M  V30 BEGIN CTAB
M  V30 COUNTS 15 14 0 0 1
M  V30 BEGIN ATOM
M  V30 1 C 74.044500 55.298100 41.898800 0 CFG=2
M  V30 2 C 75.527500 55.662700 41.686700 0
M  V30 3 C 73.520000 56.023000 43.161300 0
M  V30 4 C 73.672700 57.549100 43.140600 0
M  V30 5 O 73.271100 58.057100 41.895100 0
M  V30 6 H 73.499000 55.709400 41.051300 0
M  V30 7 H 76.068900 55.573000 42.624100 0
M  V30 8 H 76.024300 55.059300 40.935000 0
M  V30 9 H 75.640100 56.697700 41.366800 0
M  V30 10 H 72.470500 55.781200 43.324400 0
M  V30 11 H 74.056700 55.651200 44.032600 0
M  V30 12 H 73.062200 58.003500 43.922600 0
M  V30 13 H 74.709000 57.834900 43.324800 0
M  V30 14 H 73.831300 57.695500 41.226300 0
M  V30 15 R 73.710300 53.769100 41.901500 0
M  V30 END ATOM
M  V30 BEGIN BOND
M  V30 1 1 2 1
M  V30 2 1 3 1
M  V30 3 1 4 3
M  V30 4 1 5 4
M  V30 5 1 1 6 CFG=3
M  V30 6 1 7 2
M  V30 7 1 8 2
M  V30 8 1 9 2
M  V30 9 1 10 3
M  V30 10 1 11 3
M  V30 11 1 12 4
M  V30 12 1 13 4
M  V30 13 1 14 5
M  V30 14 1 15 1
M  V30 END BOND
M  V30 END CTAB
M  END
$$$$
R-group 1117 (41236-1)
     RDKit          3D

  0  0  0  0  0  0  0  0  0  0999 V3000
M  V30 BEGIN CTAB
M  V30 COUNTS 16 15 0 0 1
M  V30 BEGIN ATOM
M  V30 1 C 74.040500 54.759800 41.401200 0
M  V30 2 O 73.630000 55.505800 40.500400 0
M  V30 3 N 74.962600 55.159800 42.270300 0
M  V30 4 C 75.388400 56.439800 42.631100 0
M  V30 5 C 75.996100 56.250500 44.018500 0
M  V30 6 C 76.385300 56.949800 41.660600 0
M  V30 7 C 74.188600 57.289700 42.613400 0
M  V30 8 N 73.270500 57.958100 42.532500 0
M  V30 9 H 76.085600 57.227600 44.509300 0
M  V30 10 H 75.324500 55.643200 44.578900 0
M  V30 11 H 76.872200 55.664000 44.061000 0
M  V30 12 H 76.761600 57.936400 41.903700 0
M  V30 13 H 77.272000 56.352000 41.725500 0
M  V30 14 H 76.034800 56.987600 40.640700 0
M  V30 15 H 75.272900 54.398600 42.888900 0
M  V30 16 R 73.523800 53.339500 41.641300 0
M  V30 END ATOM
M  V30 BEGIN BOND
M  V30 1 2 2 1
M  V30 2 1 3 1
M  V30 3 1 4 3
M  V30 4 1 5 4
M  V30 5 1 6 4
M  V30 6 1 7 4
M  V30 7 3 8 7
M  V30 8 1 9 5
M  V30 9 1 10 5
M  V30 10 1 11 5
M  V30 11 1 12 6
M  V30 12 1 13 6
M  V30 13 1 14 6
M  V30 14 1 15 3
M  V30 15 1 16 1
M  V30 END BOND
M  V30 END CTAB
M  END
$$$$
R-group 1118 (2356-1)
     RDKit          3D

  0  0  0  0  0  0  0  0  0  0999 V3000
M  V30 BEGIN CTAB
M  V30 COUNTS 11 11 0 0 1
M  V30 BEGIN ATOM
M  V30 1 C 74.198900 55.093900 41.882000 0
M  V30 2 N 73.672500 56.080400 42.650300 0
M  V30 3 C 74.498300 57.060800 42.360900 0
M  V30 4 N 75.480100 56.706700 41.534100 0
M  V30 5 C 76.653000 57.400300 41.061100 0
M  V30 6 N 75.272300 55.431700 41.175900 0
M  V30 7 H 74.424100 58.037200 42.816200 0
M  V30 8 H 76.471800 58.459300 40.924500 0
M  V30 9 H 77.456400 57.260100 41.771500 0
M  V30 10 H 76.982400 56.969500 40.125100 0
M  V30 11 R 73.701500 53.686000 41.905400 0
M  V30 END ATOM
M  V30 BEGIN BOND
M  V30 1 1 2 1
M  V30 2 2 3 2
M  V30 3 1 4 3
M  V30 4 1 5 4
M  V30 5 2 6 1
M  V30 6 1 6 4
M  V30 7 1 7 3
M  V30 8 1 8 5
M  V30 9 1 9 5
M  V30 10 1 10 5
M  V30 11 1 11 1
M  V30 END BOND
M  V30 END CTAB
M  END
$$$$
R-group 1119 (1414-1)
     RDKit          3D

  0  0  0  0  0  0  0  0  0  0999 V3000
M  V30 BEGIN CTAB
M  V30 COUNTS 14 13 0 0 1
M  V30 BEGIN ATOM
M  V30 1 C 73.395500 54.693000 42.089600 0
M  V30 2 C 74.799600 55.298100 42.208100 0
M  V30 3 S 74.894200 56.854800 41.295200 0
M  V30 4 C 73.859800 57.911800 42.375900 0
M  V30 5 O 76.304000 57.257900 41.324500 0
M  V30 6 O 74.203800 56.697100 40.005400 0
M  V30 7 H 72.872200 55.138200 41.249800 0
M  V30 8 H 72.776800 54.987600 42.926600 0
M  V30 9 H 75.079400 55.467200 43.247500 0
M  V30 10 H 75.576500 54.678900 41.764900 0
M  V30 11 H 73.672000 58.858200 41.883100 0
M  V30 12 H 72.901100 57.425900 42.551400 0
M  V30 13 H 74.371300 58.058000 43.324800 0
M  V30 14 R 73.381400 53.172000 41.907800 0
M  V30 END ATOM
M  V30 BEGIN BOND
M  V30 1 1 2 1
M  V30 2 1 3 2
M  V30 3 1 4 3
M  V30 4 2 5 3
M  V30 5 2 6 3
M  V30 6 1 7 1
M  V30 7 1 8 1
M  V30 8 1 9 2
M  V30 9 1 10 2
M  V30 10 1 11 4
M  V30 11 1 12 4
M  V30 12 1 13 4
M  V30 13 1 14 1
M  V30 END BOND
M  V30 END CTAB
M  END
$$$$
R-group 1120 (36617-1)
     RDKit          3D

  0  0  0  0  0  0  0  0  0  0999 V3000
M  V30 BEGIN CTAB
M  V30 COUNTS 14 14 0 0 1
M  V30 BEGIN ATOM
M  V30 1 C 74.016700 55.195900 41.852600 0
M  V30 2 C 73.256400 56.036100 40.813600 0
M  V30 3 C 73.039000 57.398000 41.306700 0
M  V30 4 N 72.872300 58.458000 41.724800 0
M  V30 5 C 74.161200 55.818900 43.269600 0
M  V30 6 O 75.361800 56.506300 42.869600 0
M  V30 7 C 75.496100 55.555900 41.797200 0
M  V30 8 H 73.821500 56.117200 39.885400 0
M  V30 9 H 72.291300 55.630400 40.524700 0
M  V30 10 H 74.400600 55.148300 44.088600 0
M  V30 11 H 73.352900 56.479100 43.584500 0
M  V30 12 H 75.849500 55.997100 40.865000 0
M  V30 13 H 76.072200 54.702100 42.079400 0
M  V30 14 R 73.598900 53.686900 41.778800 0
M  V30 END ATOM
M  V30 BEGIN BOND
M  V30 1 1 2 1
M  V30 2 1 3 2
M  V30 3 3 4 3
M  V30 4 1 5 1
M  V30 5 1 6 5
M  V30 6 1 7 1
M  V30 7 1 7 6
M  V30 8 1 8 2
M  V30 9 1 9 2
M  V30 10 1 10 5
M  V30 11 1 11 5
M  V30 12 1 12 7
M  V30 13 1 13 7
M  V30 14 1 14 1
M  V30 END BOND
M  V30 END CTAB
M  END
$$$$
R-group 1121 (2333-1)
     RDKit          3D

  0  0  0  0  0  0  0  0  0  0999 V3000
M  V30 BEGIN CTAB
M  V30 COUNTS 15 14 0 0 1
M  V30 BEGIN ATOM
M  V30 1 O 74.467400 55.089900 41.817300 0
M  V30 2 C 73.671300 56.272600 41.907700 0
M  V30 3 C 72.872500 56.311400 43.239700 0
M  V30 4 C 72.888600 56.522400 40.588500 0
M  V30 5 C 74.656500 57.427100 42.014000 0
M  V30 6 H 72.488600 57.310800 43.444700 0
M  V30 7 H 73.524900 56.058200 44.073600 0
M  V30 8 H 72.040300 55.617400 43.324700 0
M  V30 9 H 73.572300 56.530400 39.738800 0
M  V30 10 H 72.132000 55.778400 40.357900 0
M  V30 11 H 72.397200 57.494700 40.599300 0
M  V30 12 H 75.322700 57.477900 41.152300 0
M  V30 13 H 74.072200 58.354100 42.072400 0
M  V30 14 H 75.277600 57.345700 42.908400 0
M  V30 15 R 73.856100 53.795600 41.862900 0
M  V30 END ATOM
M  V30 BEGIN BOND
M  V30 1 1 2 1
M  V30 2 1 3 2
M  V30 3 1 4 2
M  V30 4 1 5 2
M  V30 5 1 6 3
M  V30 6 1 7 3
M  V30 7 1 8 3
M  V30 8 1 9 4
M  V30 9 1 10 4
M  V30 10 1 11 4
M  V30 11 1 12 5
M  V30 12 1 13 5
M  V30 13 1 14 5
M  V30 14 1 15 1
M  V30 END BOND
M  V30 END CTAB
M  END
$$$$
R-group 1122 (14928-1)
     RDKit          3D

  0  0  0  0  0  0  0  0  0  0999 V3000
M  V30 BEGIN CTAB
M  V30 COUNTS 9 8 0 0 1
M  V30 BEGIN ATOM
M  V30 1 C 73.934200 55.161600 41.799400 0
M  V30 2 F 75.239500 55.349100 41.590500 0
M  V30 3 F 73.261600 55.755900 40.811200 0
M  V30 4 C 73.523200 55.886600 43.084900 0
M  V30 5 O 73.672200 57.276000 42.905300 0
M  V30 6 H 72.479600 55.684900 43.324600 0
M  V30 7 H 74.130000 55.558800 43.925700 0
M  V30 8 H 74.545400 57.438300 42.580900 0
M  V30 9 R 73.600800 53.639400 41.809200 0
M  V30 END ATOM
M  V30 BEGIN BOND
M  V30 1 1 2 1
M  V30 2 1 3 1
M  V30 3 1 4 1
M  V30 4 1 5 4
M  V30 5 1 6 4
M  V30 6 1 7 4
M  V30 7 1 8 5
M  V30 8 1 9 1
M  V30 END BOND
M  V30 END CTAB
M  END
$$$$
R-group 1123 (9792-3)
     RDKit          3D

  0  0  0  0  0  0  0  0  0  0999 V3000
M  V30 BEGIN CTAB
M  V30 COUNTS 13 13 0 0 1
M  V30 BEGIN ATOM
M  V30 1 C 73.931400 54.510600 41.288900 0 CFG=1
M  V30 2 C 72.955100 55.425100 40.594700 0
M  V30 3 C 73.273900 55.566500 42.071700 0 CFG=2
M  V30 4 C 74.072900 56.726200 42.439100 0
M  V30 5 N 73.291600 57.658100 42.924700 0
M  V30 6 O 75.285600 56.856500 42.288300 0
M  V30 7 H 74.979000 54.663300 41.023400 0
M  V30 8 H 73.369800 56.151700 39.897500 0
M  V30 9 H 71.983700 55.020700 40.319000 0
M  V30 10 H 72.524200 55.257100 42.804700 0
M  V30 11 H 72.299300 57.500600 43.022700 0
M  V30 12 H 73.714800 58.529200 43.205300 0
M  V30 13 R 73.563700 53.094800 41.604100 0
M  V30 END ATOM
M  V30 BEGIN BOND
M  V30 1 1 2 1
M  V30 2 1 3 1
M  V30 3 1 3 2
M  V30 4 1 4 3
M  V30 5 1 5 4
M  V30 6 2 6 4
M  V30 7 1 1 7 CFG=3
M  V30 8 1 8 2
M  V30 9 1 9 2
M  V30 10 1 3 10 CFG=1
M  V30 11 1 11 5
M  V30 12 1 12 5
M  V30 13 1 13 1
M  V30 END BOND
M  V30 END CTAB
M  END
$$$$
R-group 1124 (10134-1)
     RDKit          3D

  0  0  0  0  0  0  0  0  0  0999 V3000
M  V30 BEGIN CTAB
M  V30 COUNTS 12 11 0 0 1
M  V30 BEGIN ATOM
M  V30 1 O 73.661500 54.791700 42.139000 0
M  V30 2 C 74.950300 55.383400 42.045000 0 CFG=2
M  V30 3 C 75.431900 55.638700 43.478500 0
M  V30 4 C 74.790400 56.671400 41.243400 0
M  V30 5 F 75.986600 57.254900 41.168200 0
M  V30 6 F 74.370300 56.409600 40.006400 0
M  V30 7 F 73.907400 57.471700 41.842800 0
M  V30 8 H 75.672200 54.757800 41.528200 0
M  V30 9 H 75.976700 56.577400 43.586600 0
M  V30 10 H 74.560500 55.654800 44.124700 0
M  V30 11 H 76.069900 54.839800 43.847800 0
M  V30 12 R 73.512900 53.402700 41.890500 0
M  V30 END ATOM
M  V30 BEGIN BOND
M  V30 1 1 2 1
M  V30 2 1 3 2
M  V30 3 1 4 2
M  V30 4 1 5 4
M  V30 5 1 6 4
M  V30 6 1 7 4
M  V30 7 1 2 8 CFG=3
M  V30 8 1 9 3
M  V30 9 1 10 3
M  V30 10 1 11 3
M  V30 11 1 12 1
M  V30 END BOND
M  V30 END CTAB
M  END
$$$$
R-group 1125 (41213-1)
     RDKit          3D

  0  0  0  0  0  0  0  0  0  0999 V3000
M  V30 BEGIN CTAB
M  V30 COUNTS 14 14 0 0 1
M  V30 BEGIN ATOM
M  V30 1 C 73.143500 54.228500 42.373700 0
M  V30 2 N 73.837300 55.252900 41.630400 0
M  V30 3 N 74.877200 55.726500 42.401600 0
M  V30 4 C 75.760900 56.459300 41.876000 0
M  V30 5 C 75.651500 56.857900 40.524900 0
M  V30 6 C 74.521000 56.577200 39.831300 0
M  V30 7 C 73.507200 55.706300 40.373400 0
M  V30 8 O 72.508000 55.387000 39.726700 0
M  V30 9 H 72.086900 54.455500 42.515400 0
M  V30 10 H 73.663300 54.277800 43.328600 0
M  V30 11 H 76.624600 56.829500 42.419900 0
M  V30 12 H 76.436900 57.469300 40.111600 0
M  V30 13 H 74.401200 56.957900 38.825800 0
M  V30 14 R 73.434300 52.783600 41.978800 0
M  V30 END ATOM
M  V30 BEGIN BOND
M  V30 1 1 2 1
M  V30 2 1 3 2
M  V30 3 2 4 3
M  V30 4 1 5 4
M  V30 5 2 6 5
M  V30 6 1 7 2
M  V30 7 1 7 6
M  V30 8 2 8 7
M  V30 9 1 9 1
M  V30 10 1 10 1
M  V30 11 1 11 4
M  V30 12 1 12 5
M  V30 13 1 13 6
M  V30 14 1 14 1
M  V30 END BOND
M  V30 END CTAB
M  END
$$$$
R-group 1126 (24322-1)
     RDKit          3D

  0  0  0  0  0  0  0  0  0  0999 V3000
M  V30 BEGIN CTAB
M  V30 COUNTS 19 18 0 0 1
M  V30 BEGIN ATOM
M  V30 1 C 76.388500 57.381900 40.840400 0
M  V30 2 C 75.006000 57.041200 40.252400 0
M  V30 3 C 73.800500 57.388300 41.153100 0
M  V30 4 C 73.916700 56.986800 42.632900 0 CFG=1
M  V30 5 O 72.909100 57.661200 43.324400 0
M  V30 6 C 73.608700 55.531700 42.924200 0
M  V30 7 O 74.081200 54.740400 41.878100 0
M  V30 8 H 77.183400 57.176000 40.129300 0
M  V30 9 H 76.472300 58.436600 41.103300 0
M  V30 10 H 76.608900 56.783800 41.725900 0
M  V30 11 H 74.981600 55.991100 39.976100 0
M  V30 12 H 74.872200 57.578100 39.313900 0
M  V30 13 H 72.881200 56.983300 40.725100 0
M  V30 14 H 73.666300 58.458000 41.123700 0
M  V30 15 H 74.878200 57.276300 43.057500 0
M  V30 16 H 72.527800 55.380600 42.992700 0
M  V30 17 H 74.072700 55.257000 43.869900 0
M  V30 18 H 72.893800 57.344900 44.216400 0
M  V30 19 R 73.666100 53.405000 41.962800 0
M  V30 END ATOM
M  V30 BEGIN BOND
M  V30 1 1 2 1
M  V30 2 1 3 2
M  V30 3 1 4 3
M  V30 4 1 5 4
M  V30 5 1 6 4
M  V30 6 1 7 6
M  V30 7 1 8 1
M  V30 8 1 9 1
M  V30 9 1 10 1
M  V30 10 1 11 2
M  V30 11 1 12 2
M  V30 12 1 13 3
M  V30 13 1 14 3
M  V30 14 1 4 15 CFG=1
M  V30 15 1 16 6
M  V30 16 1 17 6
M  V30 17 1 18 5
M  V30 18 1 19 7
M  V30 END BOND
M  V30 END CTAB
M  END
$$$$
R-group 1127 (669-1)
     RDKit          3D

  0  0  0  0  0  0  0  0  0  0999 V3000
M  V30 BEGIN CTAB
M  V30 COUNTS 6 5 0 0 1
M  V30 BEGIN ATOM
M  V30 1 O 73.672000 55.125000 42.478000 0
M  V30 2 C 74.288900 56.249000 42.012500 0
M  V30 3 F 75.615700 56.058100 41.816400 0
M  V30 4 F 73.724400 56.708000 40.867200 0
M  V30 5 F 74.156500 57.247600 42.916500 0
M  V30 6 R 73.703700 53.876600 41.762900 0
M  V30 END ATOM
M  V30 BEGIN BOND
M  V30 1 1 2 1
M  V30 2 1 3 2
M  V30 3 1 4 2
M  V30 4 1 5 2
M  V30 5 1 6 1
M  V30 END BOND
M  V30 END CTAB
M  END
$$$$
R-group 1128 (2311-1)
     RDKit          3D

  0  0  0  0  0  0  0  0  0  0999 V3000
M  V30 BEGIN CTAB
M  V30 COUNTS 15 15 0 0 1
M  V30 BEGIN ATOM
M  V30 1 C 74.452700 55.266900 42.678200 0
M  V30 2 C 73.405800 56.343700 42.534500 0
M  V30 3 C 73.559000 57.700700 43.215600 0
M  V30 4 C 72.845200 58.329600 42.027800 0
M  V30 5 C 73.269700 57.113600 41.208900 0
M  V30 6 H 74.778300 55.268400 43.718900 0
M  V30 7 H 75.344400 55.514900 42.101600 0
M  V30 8 H 72.472300 55.955200 42.924700 0
M  V30 9 H 72.979800 57.807800 44.125100 0
M  V30 10 H 74.593900 58.025000 43.325300 0
M  V30 11 H 71.772000 58.458100 42.160400 0
M  V30 12 H 73.274400 59.258200 41.724700 0
M  V30 13 H 74.224800 57.258000 40.700400 0
M  V30 14 H 72.503800 56.748200 40.524700 0
M  V30 15 R 73.917200 53.866500 42.282400 0
M  V30 END ATOM
M  V30 BEGIN BOND
M  V30 1 1 2 1
M  V30 2 1 3 2
M  V30 3 1 4 3
M  V30 4 1 5 2
M  V30 5 1 5 4
M  V30 6 1 6 1
M  V30 7 1 7 1
M  V30 8 1 8 2
M  V30 9 1 9 3
M  V30 10 1 10 3
M  V30 11 1 11 4
M  V30 12 1 12 4
M  V30 13 1 13 5
M  V30 14 1 14 5
M  V30 15 1 15 1
M  V30 END BOND
M  V30 END CTAB
M  END
$$$$
R-group 1129 (35211-3)
     RDKit          3D

  0  0  0  0  0  0  0  0  0  0999 V3000
M  V30 BEGIN CTAB
M  V30 COUNTS 17 17 0 0 1
M  V30 BEGIN ATOM
M  V30 1 O 73.025400 54.443200 42.124800 0
M  V30 2 C 73.979200 55.492500 42.036500 0 CFG=2
M  V30 3 C 74.905300 55.527300 43.215500 0
M  V30 4 C 75.366500 56.969200 43.174700 0
M  V30 5 O 74.144800 57.655200 42.924700 0
M  V30 6 C 73.272900 56.826700 42.203700 0 CFG=1
M  V30 7 C 72.872300 57.488400 40.879400 0
M  V30 8 H 74.570600 55.501000 41.123000 0
M  V30 9 H 74.362500 55.309000 44.129600 0
M  V30 10 H 75.682400 54.794400 43.120500 0
M  V30 11 H 75.861700 57.285500 44.091200 0
M  V30 12 H 76.057300 57.135200 42.345700 0
M  V30 13 H 72.472300 56.702200 42.924200 0
M  V30 14 H 72.191800 56.858600 40.305100 0
M  V30 15 H 72.386300 58.451500 41.046600 0
M  V30 16 H 73.746400 57.660000 40.250600 0
M  V30 17 R 73.371500 53.173500 41.618300 0
M  V30 END ATOM
M  V30 BEGIN BOND
M  V30 1 1 2 1
M  V30 2 1 3 2
M  V30 3 1 4 3
M  V30 4 1 5 4
M  V30 5 1 6 2
M  V30 6 1 6 5
M  V30 7 1 7 6
M  V30 8 1 2 8 CFG=3
M  V30 9 1 9 3
M  V30 10 1 10 3
M  V30 11 1 11 4
M  V30 12 1 12 4
M  V30 13 1 6 13 CFG=1
M  V30 14 1 14 7
M  V30 15 1 15 7
M  V30 16 1 16 7
M  V30 17 1 17 1
M  V30 END BOND
M  V30 END CTAB
M  END
$$$$
R-group 1130 (3333-4)
     RDKit          3D

  0  0  0  0  0  0  0  0  0  0999 V3000
M  V30 BEGIN CTAB
M  V30 COUNTS 15 15 0 0 1
M  V30 BEGIN ATOM
M  V30 1 N 74.569900 55.045100 42.124300 0
M  V30 2 C 75.238000 55.541700 43.319800 0
M  V30 3 C 75.619100 56.954900 42.903800 0 CFG=1
M  V30 4 F 76.472200 56.922800 41.883200 0
M  V30 5 C 74.334000 57.436200 42.301700 0
M  V30 6 C 73.672400 56.151500 41.847000 0 CFG=1
M  V30 7 C 73.284300 56.249300 40.432800 0
M  V30 8 N 72.981900 56.328400 39.324800 0
M  V30 9 H 76.072300 54.945500 43.660700 0
M  V30 10 H 74.508900 55.556000 44.124900 0
M  V30 11 H 76.016700 57.584800 43.701100 0
M  V30 12 H 74.509100 58.058000 41.434900 0
M  V30 13 H 73.713900 57.976400 43.018000 0
M  V30 14 H 72.845000 56.002100 42.524400 0
M  V30 15 R 73.897800 53.735600 42.248000 0
M  V30 END ATOM
M  V30 BEGIN BOND
M  V30 1 1 2 1
M  V30 2 1 3 2
M  V30 3 1 4 3
M  V30 4 1 5 3
M  V30 5 1 6 1
M  V30 6 1 6 5
M  V30 7 1 7 6
M  V30 8 3 8 7
M  V30 9 1 9 2
M  V30 10 1 10 2
M  V30 11 1 3 11 CFG=1
M  V30 12 1 12 5
M  V30 13 1 13 5
M  V30 14 1 6 14 CFG=1
M  V30 15 1 15 1
M  V30 END BOND
M  V30 END CTAB
M  END
$$$$
R-group 1131 (10235-1)
     RDKit          3D

  0  0  0  0  0  0  0  0  0  0999 V3000
M  V30 BEGIN CTAB
M  V30 COUNTS 18 17 0 0 1
M  V30 BEGIN ATOM
M  V30 1 C 73.137900 56.441100 39.210900 0
M  V30 2 C 73.814800 57.656400 39.824700 0
M  V30 3 C 73.874600 57.658100 41.366500 0
M  V30 4 C 75.018900 56.821100 41.964600 0
M  V30 5 O 74.841800 55.431900 41.759700 0
M  V30 6 C 73.811900 54.878700 42.558000 0
M  V30 7 H 73.275500 56.464200 38.132900 0
M  V30 8 H 73.619100 55.534600 39.550800 0
M  V30 9 H 72.074800 56.393300 39.447500 0
M  V30 10 H 73.308700 58.555200 39.470400 0
M  V30 11 H 74.824800 57.655900 39.415000 0
M  V30 12 H 72.900000 57.415000 41.784000 0
M  V30 13 H 74.062100 58.664100 41.724800 0
M  V30 14 H 75.126300 57.030300 43.030100 0
M  V30 15 H 75.964400 57.112500 41.505300 0
M  V30 16 H 72.872400 55.392600 42.400600 0
M  V30 17 H 74.072300 55.028100 43.606300 0
M  V30 18 R 73.597400 53.393600 42.235600 0
M  V30 END ATOM
M  V30 BEGIN BOND
M  V30 1 1 2 1
M  V30 2 1 3 2
M  V30 3 1 4 3
M  V30 4 1 5 4
M  V30 5 1 6 5
M  V30 6 1 7 1
M  V30 7 1 8 1
M  V30 8 1 9 1
M  V30 9 1 10 2
M  V30 10 1 11 2
M  V30 11 1 12 3
M  V30 12 1 13 3
M  V30 13 1 14 4
M  V30 14 1 15 4
M  V30 15 1 16 6
M  V30 16 1 17 6
M  V30 17 1 18 6
M  V30 END BOND
M  V30 END CTAB
M  END
$$$$
R-group 1132 (31018-8)
     RDKit          3D

  0  0  0  0  0  0  0  0  0  0999 V3000
M  V30 BEGIN CTAB
M  V30 COUNTS 20 21 0 0 1
M  V30 BEGIN ATOM
M  V30 1 C 74.129600 54.734800 42.651800 0 CFG=2
M  V30 2 C 72.875300 55.568200 42.676000 0
M  V30 3 C 73.261600 56.669200 41.651000 0 CFG=1
M  V30 4 C 74.228500 57.608200 42.319200 0
M  V30 5 C 75.534000 56.777200 42.247400 0 CFG=2
M  V30 6 O 76.472300 57.266600 41.324700 0
M  V30 7 C 75.046500 55.456100 41.639800 0 CFG=2
M  V30 8 C 74.084400 55.987500 40.587800 0
M  V30 9 H 74.571700 54.826100 43.643200 0
M  V30 10 H 72.071200 54.828800 42.477500 0
M  V30 11 H 72.659500 56.052900 43.637200 0
M  V30 12 H 72.467700 57.257500 41.218700 0
M  V30 13 H 74.097900 58.506000 41.723600 0
M  V30 14 H 73.944300 57.854300 43.338400 0
M  V30 15 H 76.006400 56.646900 43.222900 0
M  V30 16 H 75.872500 54.857800 41.268500 0
M  V30 17 H 74.527900 56.682100 39.870800 0
M  V30 18 H 73.515300 55.269200 40.014200 0
M  V30 19 H 76.807700 58.093100 41.635500 0
M  V30 20 R 73.779000 53.257600 42.343100 0
M  V30 END ATOM
M  V30 BEGIN BOND
M  V30 1 1 2 1
M  V30 2 1 3 2
M  V30 3 1 4 3
M  V30 4 1 5 4
M  V30 5 1 6 5
M  V30 6 1 7 1
M  V30 7 1 7 5
M  V30 8 1 8 3
M  V30 9 1 8 7
M  V30 10 1 1 9 CFG=1
M  V30 11 1 10 2
M  V30 12 1 11 2
M  V30 13 1 3 12 CFG=3
M  V30 14 1 13 4
M  V30 15 1 14 4
M  V30 16 1 5 15 CFG=1
M  V30 17 1 7 16 CFG=3
M  V30 18 1 17 8
M  V30 19 1 18 8
M  V30 20 1 19 6
M  V30 21 1 20 1
M  V30 END BOND
M  V30 END CTAB
M  END
$$$$
R-group 1133 (18148-2)
     RDKit          3D

  0  0  0  0  0  0  0  0  0  0999 V3000
M  V30 BEGIN CTAB
M  V30 COUNTS 18 17 0 0 1
M  V30 BEGIN ATOM
M  V30 1 C 76.024800 57.052000 43.474700 0
M  V30 2 C 74.623600 57.421500 43.009700 0
M  V30 3 C 74.469300 57.107800 41.529600 0 CFG=2
M  V30 4 O 73.272200 57.657600 41.064600 0
M  V30 5 C 74.440500 55.605000 41.256600 0
M  V30 6 C 73.621000 54.782300 42.276700 0
M  V30 7 H 76.076400 57.258300 44.524700 0
M  V30 8 H 76.252500 55.997700 43.336900 0
M  V30 9 H 76.778200 57.658100 42.965500 0
M  V30 10 H 74.460900 58.458000 43.242700 0
M  V30 11 H 73.836400 56.951000 43.594900 0
M  V30 12 H 75.283200 57.559200 40.960400 0
M  V30 13 H 75.462700 55.227300 41.247300 0
M  V30 14 H 74.050100 55.486400 40.247500 0
M  V30 15 H 72.631300 55.200700 42.416100 0
M  V30 16 H 74.073200 54.877900 43.261500 0
M  V30 17 H 73.307100 58.593300 41.188000 0
M  V30 18 R 73.489800 53.289500 41.963400 0
M  V30 END ATOM
M  V30 BEGIN BOND
M  V30 1 1 2 1
M  V30 2 1 3 2
M  V30 3 1 4 3
M  V30 4 1 5 3
M  V30 5 1 6 5
M  V30 6 1 7 1
M  V30 7 1 8 1
M  V30 8 1 9 1
M  V30 9 1 10 2
M  V30 10 1 11 2
M  V30 11 1 3 12 CFG=3
M  V30 12 1 13 5
M  V30 13 1 14 5
M  V30 14 1 15 6
M  V30 15 1 16 6
M  V30 16 1 17 4
M  V30 17 1 18 6
M  V30 END BOND
M  V30 END CTAB
M  END
$$$$
R-group 1134 (1357-1)
     RDKit          3D

  0  0  0  0  0  0  0  0  0  0999 V3000
M  V30 BEGIN CTAB
M  V30 COUNTS 9 9 0 0 1
M  V30 BEGIN ATOM
M  V30 1 C 74.084100 54.905400 41.991800 0
M  V30 2 C 74.872200 55.542200 42.924600 0
M  V30 3 N 74.936300 56.857100 42.524600 0
M  V30 4 C 74.189800 56.967500 41.429300 0
M  V30 5 N 73.672300 55.825200 41.026300 0
M  V30 6 H 75.369100 55.192400 43.816400 0
M  V30 7 H 74.015100 57.903100 40.924700 0
M  V30 8 H 75.421200 57.605700 42.999900 0
M  V30 9 R 73.642400 53.469100 41.942500 0
M  V30 END ATOM
M  V30 BEGIN BOND
M  V30 1 2 2 1
M  V30 2 1 3 2
M  V30 3 1 4 3
M  V30 4 1 5 1
M  V30 5 2 5 4
M  V30 6 1 6 2
M  V30 7 1 7 4
M  V30 8 1 8 3
M  V30 9 1 9 1
M  V30 END BOND
M  V30 END CTAB
M  END
$$$$
R-group 1135 (10636-1)
     RDKit          3D

  0  0  0  0  0  0  0  0  0  0999 V3000
M  V30 BEGIN CTAB
M  V30 COUNTS 18 17 0 0 1
M  V30 BEGIN ATOM
M  V30 1 C 73.456400 54.940600 42.361600 0
M  V30 2 O 73.648900 55.554200 41.090400 0
M  V30 3 C 74.166900 56.867400 40.990800 0
M  V30 4 C 74.034000 57.106800 39.469900 0
M  V30 5 C 73.300200 57.850700 41.794400 0
M  V30 6 C 75.644300 56.779500 41.432100 0
M  V30 7 F 75.790500 56.779900 42.754800 0
M  V30 8 F 76.472400 57.658000 40.924100 0
M  V30 9 F 76.072200 55.658000 40.924800 0
M  V30 10 H 74.202200 55.216100 43.099400 0
M  V30 11 H 72.502600 55.253100 42.789700 0
M  V30 12 H 74.465100 58.043600 39.130000 0
M  V30 13 H 74.528800 56.317700 38.905600 0
M  V30 14 H 72.988100 57.104600 39.163300 0
M  V30 15 H 73.671300 58.858300 41.725000 0
M  V30 16 H 72.287200 57.885400 41.407300 0
M  V30 17 H 73.253400 57.597500 42.854200 0
M  V30 18 R 73.457500 53.416100 42.148400 0
M  V30 END ATOM
M  V30 BEGIN BOND
M  V30 1 1 2 1
M  V30 2 1 3 2
M  V30 3 1 4 3
M  V30 4 1 5 3
M  V30 5 1 6 3
M  V30 6 1 7 6
M  V30 7 1 8 6
M  V30 8 1 9 6
M  V30 9 1 10 1
M  V30 10 1 11 1
M  V30 11 1 12 4
M  V30 12 1 13 4
M  V30 13 1 14 4
M  V30 14 1 15 5
M  V30 15 1 16 5
M  V30 16 1 17 5
M  V30 17 1 18 1
M  V30 END BOND
M  V30 END CTAB
M  END
$$$$
R-group 1136 (36853-1)
     RDKit          3D

  0  0  0  0  0  0  0  0  0  0999 V3000
M  V30 BEGIN CTAB
M  V30 COUNTS 18 17 0 0 1
M  V30 BEGIN ATOM
M  V30 1 C 73.135200 57.509600 43.122100 0
M  V30 2 C 73.104000 55.971100 43.182100 0
M  V30 3 C 73.578500 55.244800 41.913500 0 CFG=1
M  V30 4 N 74.926900 55.695100 41.624100 0
M  V30 5 C 75.202300 56.564400 40.652200 0
M  V30 6 C 76.542200 57.280000 40.735500 0
M  V30 7 O 74.420500 56.849300 39.743100 0
M  V30 8 H 72.661500 57.931900 44.006900 0
M  V30 9 H 74.155100 57.891600 43.090000 0
M  V30 10 H 72.605000 57.888700 42.247400 0
M  V30 11 H 72.073600 55.658000 43.348000 0
M  V30 12 H 73.710700 55.658000 44.027200 0
M  V30 13 H 72.876000 55.605300 41.154300 0
M  V30 14 H 77.271700 56.760100 40.127400 0
M  V30 15 H 76.472300 58.293100 40.342100 0
M  V30 16 H 76.900900 57.349800 41.762700 0
M  V30 17 H 75.636000 55.504900 42.314600 0
M  V30 18 R 73.443800 53.687000 41.891200 0
M  V30 END ATOM
M  V30 BEGIN BOND
M  V30 1 1 2 1
M  V30 2 1 3 2
M  V30 3 1 4 3
M  V30 4 1 5 4
M  V30 5 1 6 5
M  V30 6 2 7 5
M  V30 7 1 8 1
M  V30 8 1 9 1
M  V30 9 1 10 1
M  V30 10 1 11 2
M  V30 11 1 12 2
M  V30 12 1 3 13 CFG=3
M  V30 13 1 14 6
M  V30 14 1 15 6
M  V30 15 1 16 6
M  V30 16 1 17 4
M  V30 17 1 18 3
M  V30 END BOND
M  V30 END CTAB
M  END
$$$$
R-group 1137 (20051-2)
     RDKit          3D

  0  0  0  0  0  0  0  0  0  0999 V3000
M  V30 BEGIN CTAB
M  V30 COUNTS 18 19 0 0 1
M  V30 BEGIN ATOM
M  V30 1 N 74.071800 55.010300 41.852800 0
M  V30 2 C 75.415300 55.591000 41.910400 0
M  V30 3 C 75.110300 57.044300 41.496700 0 CFG=1
M  V30 4 C 74.265000 56.775200 40.280000 0
M  V30 5 C 73.272200 55.967400 41.106300 0 CFG=2
M  V30 6 C 72.872200 56.907400 42.237700 0
M  V30 7 C 74.079200 57.658000 42.470500 0
M  V30 8 F 73.674300 58.862600 42.124300 0
M  V30 9 F 74.544500 57.686500 43.708900 0
M  V30 10 H 75.848700 55.516900 42.907200 0
M  V30 11 H 76.072000 55.119500 41.182400 0
M  V30 12 H 75.995600 57.657200 41.323200 0
M  V30 13 H 74.782600 56.214900 39.502000 0
M  V30 14 H 73.816300 57.662300 39.836600 0
M  V30 15 H 72.446400 55.558600 40.524700 0
M  V30 16 H 72.127700 57.654900 41.887400 0
M  V30 17 H 72.478800 56.412100 43.131800 0
M  V30 18 R 73.812600 53.597300 41.612400 0
M  V30 END ATOM
M  V30 BEGIN BOND
M  V30 1 1 2 1
M  V30 2 1 3 2
M  V30 3 1 4 3
M  V30 4 1 5 1
M  V30 5 1 5 4
M  V30 6 1 6 5
M  V30 7 1 7 3
M  V30 8 1 7 6
M  V30 9 1 8 7
M  V30 10 1 9 7
M  V30 11 1 10 2
M  V30 12 1 11 2
M  V30 13 1 3 12 CFG=3
M  V30 14 1 13 4
M  V30 15 1 14 4
M  V30 16 1 5 15 CFG=3
M  V30 17 1 16 6
M  V30 18 1 17 6
M  V30 19 1 18 1
M  V30 END BOND
M  V30 END CTAB
M  END
$$$$
R-group 1138 (19386-2)
     RDKit          3D

  0  0  0  0  0  0  0  0  0  0999 V3000
M  V30 BEGIN CTAB
M  V30 COUNTS 16 16 0 0 1
M  V30 BEGIN ATOM
M  V30 1 C 73.517500 54.454600 41.765700 0 CFG=1
M  V30 2 C 74.887100 55.135600 41.896400 0
M  V30 3 C 74.372500 56.248200 40.998800 0 CFG=2
M  V30 4 C 73.672600 57.366900 41.717700 0
M  V30 5 N 72.872300 58.058000 40.925000 0
M  V30 6 O 73.727300 57.549000 42.923900 0
M  V30 7 C 73.325700 55.269300 40.465600 0
M  V30 8 H 72.875300 54.869700 42.549600 0
M  V30 9 H 75.169700 55.408100 42.914600 0
M  V30 10 H 75.672100 54.572900 41.405600 0
M  V30 11 H 75.089200 56.590800 40.252500 0
M  V30 12 H 72.839200 57.864000 39.935800 0
M  V30 13 H 73.652500 54.849400 39.519900 0
M  V30 14 H 72.311700 55.625900 40.322900 0
M  V30 15 H 72.308800 58.793000 41.324800 0
M  V30 16 R 73.431100 52.944400 41.775700 0
M  V30 END ATOM
M  V30 BEGIN BOND
M  V30 1 1 2 1
M  V30 2 1 3 2
M  V30 3 1 4 3
M  V30 4 1 5 4
M  V30 5 2 6 4
M  V30 6 1 7 1
M  V30 7 1 7 3
M  V30 8 1 1 8 CFG=1
M  V30 9 1 9 2
M  V30 10 1 10 2
M  V30 11 1 3 11 CFG=3
M  V30 12 1 12 5
M  V30 13 1 13 7
M  V30 14 1 14 7
M  V30 15 1 15 5
M  V30 16 1 16 1
M  V30 END BOND
M  V30 END CTAB
M  END
$$$$
R-group 1139 (16194-1)
     RDKit          3D

  0  0  0  0  0  0  0  0  0  0999 V3000
M  V30 BEGIN CTAB
M  V30 COUNTS 12 11 0 0 1
M  V30 BEGIN ATOM
M  V30 1 O 74.451300 54.912200 41.710300 0
M  V30 2 C 73.577500 56.014900 41.794000 0 CFG=2
M  V30 3 C 72.941000 56.393700 40.433400 0
M  V30 4 C 74.287400 57.207500 42.389600 0
M  V30 5 F 73.304100 58.058000 42.678600 0
M  V30 6 H 72.858800 55.770400 42.561100 0
M  V30 7 H 72.473500 57.378100 40.474400 0
M  V30 8 H 73.692600 56.426300 39.644900 0
M  V30 9 H 72.149000 55.717800 40.124200 0
M  V30 10 H 74.805700 56.962300 43.317200 0
M  V30 11 H 74.988800 57.658000 41.690300 0
M  V30 12 R 73.825200 53.637900 41.845600 0
M  V30 END ATOM
M  V30 BEGIN BOND
M  V30 1 1 2 1
M  V30 2 1 3 2
M  V30 3 1 4 2
M  V30 4 1 5 4
M  V30 5 1 2 6 CFG=1
M  V30 6 1 7 3
M  V30 7 1 8 3
M  V30 8 1 9 3
M  V30 9 1 10 4
M  V30 10 1 11 4
M  V30 11 1 12 1
M  V30 END BOND
M  V30 END CTAB
M  END
$$$$
R-group 1140 (25215-4)
     RDKit          3D

  0  0  0  0  0  0  0  0  0  0999 V3000
M  V30 BEGIN CTAB
M  V30 COUNTS 16 16 0 0 1
M  V30 BEGIN ATOM
M  V30 1 C 74.277000 55.163300 42.893400 0 CFG=2
M  V30 2 C 73.193600 56.236500 42.984700 0
M  V30 3 C 73.272500 56.945200 41.648200 0
M  V30 4 C 74.755600 56.846200 41.342200 0 CFG=2
M  V30 5 C 75.039600 56.787300 39.849900 0
M  V30 6 O 75.215800 55.646100 41.943100 0
M  V30 7 H 74.774000 55.166300 43.863300 0
M  V30 8 H 72.226600 55.857100 43.324600 0
M  V30 9 H 73.486800 56.976000 43.724700 0
M  V30 10 H 72.734600 56.436400 40.854700 0
M  V30 11 H 72.916300 57.975000 41.688100 0
M  V30 12 H 75.302000 57.658000 41.810700 0
M  V30 13 H 74.670000 57.659000 39.323300 0
M  V30 14 H 76.111800 56.719600 39.724800 0
M  V30 15 H 74.573600 55.924600 39.377900 0
M  V30 16 R 73.831600 53.709100 42.528500 0
M  V30 END ATOM
M  V30 BEGIN BOND
M  V30 1 1 2 1
M  V30 2 1 3 2
M  V30 3 1 4 3
M  V30 4 1 5 4
M  V30 5 1 6 1
M  V30 6 1 6 4
M  V30 7 1 1 7 CFG=1
M  V30 8 1 8 2
M  V30 9 1 9 2
M  V30 10 1 10 3
M  V30 11 1 11 3
M  V30 12 1 4 12 CFG=1
M  V30 13 1 13 5
M  V30 14 1 14 5
M  V30 15 1 15 5
M  V30 16 1 16 1
M  V30 END BOND
M  V30 END CTAB
M  END
$$$$
R-group 1141 (11926-1)
     RDKit          3D

  0  0  0  0  0  0  0  0  0  0999 V3000
M  V30 BEGIN CTAB
M  V30 COUNTS 7 7 0 0 1
M  V30 BEGIN ATOM
M  V30 1 C 74.066300 55.026300 42.066700 0
M  V30 2 C 73.672100 56.014300 42.922000 0
M  V30 3 N 74.081000 57.266800 42.524500 0
M  V30 4 N 74.920000 57.257700 41.542700 0
M  V30 5 S 75.152100 55.739400 40.942500 0
M  V30 6 H 72.960600 55.973200 43.725500 0
M  V30 7 R 73.655800 53.592000 42.007700 0
M  V30 END ATOM
M  V30 BEGIN BOND
M  V30 1 2 2 1
M  V30 2 1 3 2
M  V30 3 2 4 3
M  V30 4 1 5 1
M  V30 5 1 5 4
M  V30 6 1 6 2
M  V30 7 1 7 1
M  V30 END BOND
M  V30 END CTAB
M  END
$$$$
R-group 1142 (8252-1)
     RDKit          3D

  0  0  0  0  0  0  0  0  0  0999 V3000
M  V30 BEGIN CTAB
M  V30 COUNTS 12 12 0 0 1
M  V30 BEGIN ATOM
M  V30 1 C 73.934600 54.623800 41.779300 0
M  V30 2 C 74.873300 55.233900 42.560800 0
M  V30 3 S 75.096700 56.858100 42.122300 0
M  V30 4 C 73.689700 56.752100 41.088800 0
M  V30 5 C 72.881300 57.927500 40.625900 0
M  V30 6 O 72.471900 58.806300 41.684500 0
M  V30 7 N 73.349000 55.484900 40.851800 0
M  V30 8 H 75.503200 54.830900 43.335400 0
M  V30 9 H 73.423500 58.457700 39.841300 0
M  V30 10 H 71.996800 57.541600 40.126300 0
M  V30 11 H 71.895600 58.330500 42.260600 0
M  V30 12 R 73.536300 53.192200 41.845600 0
M  V30 END ATOM
M  V30 BEGIN BOND
M  V30 1 2 2 1
M  V30 2 1 3 2
M  V30 3 1 4 3
M  V30 4 1 5 4
M  V30 5 1 6 5
M  V30 6 1 7 1
M  V30 7 2 7 4
M  V30 8 1 8 2
M  V30 9 1 9 5
M  V30 10 1 10 5
M  V30 11 1 11 6
M  V30 12 1 12 1
M  V30 END BOND
M  V30 END CTAB
M  END
$$$$
R-group 1143 (14643-1)
     RDKit          3D

  0  0  0  0  0  0  0  0  0  0999 V3000
M  V30 BEGIN CTAB
M  V30 COUNTS 12 12 0 0 1
M  V30 BEGIN ATOM
M  V30 1 N 73.800900 54.999500 42.027900 0
M  V30 2 C 73.967400 55.648600 43.324100 0
M  V30 3 C 74.676600 56.733400 42.539500 0
M  V30 4 C 73.671700 57.690300 42.077300 0
M  V30 5 N 72.872200 58.448300 41.724700 0
M  V30 6 C 75.029200 55.619100 41.551600 0
M  V30 7 H 74.617400 55.117600 44.014300 0
M  V30 8 H 73.005500 55.965600 43.724700 0
M  V30 9 H 75.518800 57.200700 43.050700 0
M  V30 10 H 74.967700 55.884200 40.496200 0
M  V30 11 H 75.909400 55.037500 41.821400 0
M  V30 12 R 73.626900 53.548200 41.954400 0
M  V30 END ATOM
M  V30 BEGIN BOND
M  V30 1 1 2 1
M  V30 2 1 3 2
M  V30 3 1 4 3
M  V30 4 3 5 4
M  V30 5 1 6 1
M  V30 6 1 6 3
M  V30 7 1 7 2
M  V30 8 1 8 2
M  V30 9 1 9 3
M  V30 10 1 10 6
M  V30 11 1 11 6
M  V30 12 1 12 1
M  V30 END BOND
M  V30 END CTAB
M  END
$$$$
R-group 1144 (837-1)
     RDKit          3D

  0  0  0  0  0  0  0  0  0  0999 V3000
M  V30 BEGIN CTAB
M  V30 COUNTS 12 12 0 0 1
M  V30 BEGIN ATOM
M  V30 1 S 74.098900 55.508100 41.685800 0
M  V30 2 O 73.675000 56.146700 42.927900 0
M  V30 3 O 75.490800 55.658800 41.247000 0
M  V30 4 C 72.996100 56.273300 40.430300 0
M  V30 5 C 72.996400 57.775600 40.651000 0
M  V30 6 C 73.659200 57.175900 39.443800 0
M  V30 7 H 72.084200 55.746500 40.165300 0
M  V30 8 H 72.067300 58.316600 40.524700 0
M  V30 9 H 73.658600 58.196300 41.406200 0
M  V30 10 H 74.744500 57.196600 39.374800 0
M  V30 11 H 73.114500 57.221200 38.524700 0
M  V30 12 R 73.644000 53.701900 41.790200 0
M  V30 END ATOM
M  V30 BEGIN BOND
M  V30 1 2 2 1
M  V30 2 2 3 1
M  V30 3 1 4 1
M  V30 4 1 5 4
M  V30 5 1 6 4
M  V30 6 1 6 5
M  V30 7 1 7 4
M  V30 8 1 8 5
M  V30 9 1 9 5
M  V30 10 1 10 6
M  V30 11 1 11 6
M  V30 12 1 12 1
M  V30 END BOND
M  V30 END CTAB
M  END
$$$$
R-group 1145 (41755-1)
     RDKit          3D

  0  0  0  0  0  0  0  0  0  0999 V3000
M  V30 BEGIN CTAB
M  V30 COUNTS 10 9 0 0 1
M  V30 BEGIN ATOM
M  V30 1 C 73.935000 55.153700 41.790900 0
M  V30 2 F 75.241800 55.345300 41.583300 0
M  V30 3 F 73.272500 55.759700 40.801500 0
M  V30 4 C 73.526000 55.864700 43.085000 0
M  V30 5 N 73.674000 57.292500 42.922500 0
M  V30 6 H 72.483100 55.658700 43.324800 0
M  V30 7 H 74.140600 55.523600 43.916500 0
M  V30 8 H 73.572100 57.741000 43.819500 0
M  V30 9 H 74.610300 57.491500 42.599000 0
M  V30 10 R 73.596300 53.637700 41.791700 0
M  V30 END ATOM
M  V30 BEGIN BOND
M  V30 1 1 2 1
M  V30 2 1 3 1
M  V30 3 1 4 1
M  V30 4 1 5 4
M  V30 5 1 6 4
M  V30 6 1 7 4
M  V30 7 1 8 5
M  V30 8 1 9 5
M  V30 9 1 10 1
M  V30 END BOND
M  V30 END CTAB
M  END
$$$$
R-group 1146 (41847-2)
     RDKit          3D

  0  0  0  0  0  0  0  0  0  0999 V3000
M  V30 BEGIN CTAB
M  V30 COUNTS 11 10 0 0 1
M  V30 BEGIN ATOM
M  V30 1 C 74.694800 55.398000 42.364600 0
M  V30 2 F 75.207100 55.436700 43.597600 0
M  V30 3 F 75.717900 55.547800 41.525000 0
M  V30 4 C 73.807200 56.662800 42.317600 0
M  V30 5 F 72.794200 56.480400 43.159400 0
M  V30 6 F 74.551300 57.658200 42.790800 0
M  V30 7 C 73.271400 57.118100 40.941900 0
M  V30 8 F 72.657500 58.296300 41.058700 0
M  V30 9 F 74.246800 57.226100 40.040800 0
M  V30 10 H 72.522900 56.449400 40.524700 0
M  V30 11 R 73.999300 54.005400 42.143800 0
M  V30 END ATOM
M  V30 BEGIN BOND
M  V30 1 1 2 1
M  V30 2 1 3 1
M  V30 3 1 4 1
M  V30 4 1 5 4
M  V30 5 1 6 4
M  V30 6 1 7 4
M  V30 7 1 8 7
M  V30 8 1 9 7
M  V30 9 1 10 7
M  V30 10 1 11 1
M  V30 END BOND
M  V30 END CTAB
M  END
$$$$
R-group 1147 (10999-1)
     RDKit          3D

  0  0  0  0  0  0  0  0  0  0999 V3000
M  V30 BEGIN CTAB
M  V30 COUNTS 14 14 0 0 1
M  V30 BEGIN ATOM
M  V30 1 C 73.016300 54.474800 41.909900 0
M  V30 2 C 74.055000 55.493600 41.554300 0
M  V30 3 N 74.097200 56.096800 40.374000 0
M  V30 4 C 75.209900 56.857600 40.534300 0
M  V30 5 N 75.794400 56.794300 41.722000 0
M  V30 6 N 75.036700 55.891100 42.372500 0
M  V30 7 C 75.395800 55.526200 43.723300 0
M  V30 8 H 72.139900 54.654400 41.286200 0
M  V30 9 H 72.678900 54.617800 42.924900 0
M  V30 10 H 75.604700 57.479100 39.744400 0
M  V30 11 H 74.518800 55.240200 44.305500 0
M  V30 12 H 76.073900 54.685000 43.723200 0
M  V30 13 H 75.928900 56.359000 44.178100 0
M  V30 14 R 73.384000 53.024300 41.600000 0
M  V30 END ATOM
M  V30 BEGIN BOND
M  V30 1 1 2 1
M  V30 2 2 3 2
M  V30 3 1 4 3
M  V30 4 2 5 4
M  V30 5 1 6 2
M  V30 6 1 6 5
M  V30 7 1 7 6
M  V30 8 1 8 1
M  V30 9 1 9 1
M  V30 10 1 10 4
M  V30 11 1 11 7
M  V30 12 1 12 7
M  V30 13 1 13 7
M  V30 14 1 14 1
M  V30 END BOND
M  V30 END CTAB
M  END
$$$$
R-group 1148 (3877-1)
     RDKit          3D

  0  0  0  0  0  0  0  0  0  0999 V3000
M  V30 BEGIN CTAB
M  V30 COUNTS 12 12 0 0 1
M  V30 BEGIN ATOM
M  V30 1 N 73.847600 55.286100 42.356500 0
M  V30 2 C 73.022900 56.145600 43.289200 0
M  V30 3 C 73.335600 57.554700 42.809900 0
M  V30 4 N 74.334700 57.258600 41.761300 0
M  V30 5 C 74.682200 56.013200 41.617200 0
M  V30 6 O 75.576800 55.659800 40.888500 0
M  V30 7 H 71.954800 55.914300 43.325100 0
M  V30 8 H 73.242200 56.074400 44.358500 0
M  V30 9 H 73.755600 58.120400 43.705400 0
M  V30 10 H 72.472200 58.107900 42.369300 0
M  V30 11 H 74.855400 58.060400 41.383800 0
M  V30 12 R 73.550800 53.880700 42.124700 0
M  V30 END ATOM
M  V30 BEGIN BOND
M  V30 1 1 2 1
M  V30 2 1 3 2
M  V30 3 1 4 3
M  V30 4 1 5 1
M  V30 5 1 5 4
M  V30 6 2 6 5
M  V30 7 1 7 2
M  V30 8 1 8 2
M  V30 9 1 9 3
M  V30 10 1 10 3
M  V30 11 1 11 4
M  V30 12 1 12 1
M  V30 END BOND
M  V30 END CTAB
M  END
$$$$
R-group 1 (10130-1)
     RDKit          3D

  0  0  0  0  0  0  0  0  0  0999 V3000
M  V30 BEGIN CTAB
M  V30 COUNTS 11 10 0 0 1
M  V30 BEGIN ATOM
M  V30 1 C 73.599900 55.377200 42.005300 0 CFG=1
M  V30 2 C 72.872200 56.068500 43.173000 0
M  V30 3 C 75.004600 55.964900 41.946800 0
M  V30 4 F 75.672200 55.484900 40.924500 0
M  V30 5 F 74.881800 57.258000 41.725500 0
M  V30 6 F 75.671900 55.790900 43.085100 0
M  V30 7 H 73.108000 55.774200 41.116800 0
M  V30 8 H 73.409400 56.058000 44.116500 0
M  V30 9 H 72.738700 57.126900 42.950800 0
M  V30 10 H 71.879800 55.651800 43.324600 0
M  V30 11 R 73.429300 53.812500 41.899000 0
M  V30 END ATOM
M  V30 BEGIN BOND
M  V30 1 1 2 1
M  V30 2 1 3 1
M  V30 3 1 4 3
M  V30 4 1 5 3
M  V30 5 1 6 3
M  V30 6 1 1 7 CFG=3
M  V30 7 1 8 2
M  V30 8 1 9 2
M  V30 9 1 10 2
M  V30 10 1 11 1
M  V30 END BOND
M  V30 END CTAB
M  END
$$$$
R-group 2 (1349-1)
     RDKit          3D

  0  0  0  0  0  0  0  0  0  0999 V3000
M  V30 BEGIN CTAB
M  V30 COUNTS 10 9 0 0 1
M  V30 BEGIN ATOM
M  V30 1 C 73.903400 55.032200 41.837900 0
M  V30 2 O 73.672300 55.706200 40.833200 0
M  V30 3 N 74.472200 55.555100 42.925000 0
M  V30 4 C 75.008900 56.895200 43.022900 0
M  V30 5 C 75.834900 57.120900 41.857600 0
M  V30 6 N 76.472200 57.258000 40.924700 0
M  V30 7 H 75.672300 56.998500 43.880500 0
M  V30 8 H 74.219400 57.645600 43.075100 0
M  V30 9 H 74.572200 54.960200 43.734100 0
M  V30 10 R 73.564100 53.534800 41.897700 0
M  V30 END ATOM
M  V30 BEGIN BOND
M  V30 1 2 2 1
M  V30 2 1 3 1
M  V30 3 1 4 3
M  V30 4 1 5 4
M  V30 5 3 6 5
M  V30 6 1 7 4
M  V30 7 1 8 4
M  V30 8 1 9 3
M  V30 9 1 10 1
M  V30 END BOND
M  V30 END CTAB
M  END
$$$$
R-group 3 (3795-1)
     RDKit          3D

  0  0  0  0  0  0  0  0  0  0999 V3000
M  V30 BEGIN CTAB
M  V30 COUNTS 6 5 0 0 1
M  V30 BEGIN ATOM
M  V30 1 O 74.553400 55.210400 42.545100 0
M  V30 2 C 73.798300 56.331200 42.663900 0
M  V30 3 F 73.672700 56.931000 41.455800 0
M  V30 4 H 72.812600 56.104100 43.066200 0
M  V30 5 H 74.320000 57.029600 43.317800 0
M  V30 6 R 73.904900 53.964500 42.296600 0
M  V30 END ATOM
M  V30 BEGIN BOND
M  V30 1 1 2 1
M  V30 2 1 3 2
M  V30 3 1 4 2
M  V30 4 1 5 2
M  V30 5 1 6 1
M  V30 END BOND
M  V30 END CTAB
M  END
$$$$
R-group 4 (14816-1)
     RDKit          3D

  0  0  0  0  0  0  0  0  0  0999 V3000
M  V30 BEGIN CTAB
M  V30 COUNTS 13 13 0 0 1
M  V30 BEGIN ATOM
M  V30 1 N 73.204900 54.237500 42.124300 0
M  V30 2 C 71.847700 54.205500 42.634800 0
M  V30 3 C 74.071500 55.317500 42.149000 0
M  V30 4 N 75.247600 55.503300 41.544800 0
M  V30 5 C 75.597000 56.781400 41.914800 0
M  V30 6 C 74.604000 57.257700 42.728900 0
M  V30 7 O 73.646300 56.337500 42.920000 0
M  V30 8 H 71.677900 55.034600 43.324500 0
M  V30 9 H 71.165200 54.267900 41.786100 0
M  V30 10 H 71.640000 53.292700 43.196700 0
M  V30 11 H 76.517900 57.245300 41.596700 0
M  V30 12 H 74.472700 58.172200 43.288200 0
M  V30 13 R 73.522700 52.955600 41.589700 0
M  V30 END ATOM
M  V30 BEGIN BOND
M  V30 1 1 2 1
M  V30 2 1 3 1
M  V30 3 2 4 3
M  V30 4 1 5 4
M  V30 5 2 6 5
M  V30 6 1 7 3
M  V30 7 1 7 6
M  V30 8 1 8 2
M  V30 9 1 9 2
M  V30 10 1 10 2
M  V30 11 1 11 5
M  V30 12 1 12 6
M  V30 13 1 13 1
M  V30 END BOND
M  V30 END CTAB
M  END
$$$$
R-group 5 (13248-1)
     RDKit          3D

  0  0  0  0  0  0  0  0  0  0999 V3000
M  V30 BEGIN CTAB
M  V30 COUNTS 14 14 0 0 1
M  V30 BEGIN ATOM
M  V30 1 C 72.633700 54.068400 42.235600 0
M  V30 2 N 73.616200 55.095400 42.524700 0
M  V30 3 C 74.169400 55.868700 41.556600 0
M  V30 4 C 73.482400 56.248500 40.381400 0
M  V30 5 C 74.472600 56.858000 39.712400 0
M  V30 6 N 75.592900 56.857900 40.524800 0
M  V30 7 N 75.401300 56.273800 41.697800 0
M  V30 8 H 71.866200 54.416400 41.549800 0
M  V30 9 H 72.094400 53.808900 43.147600 0
M  V30 10 H 72.472300 56.061700 40.056900 0
M  V30 11 H 74.471700 57.314700 38.735000 0
M  V30 12 H 74.127000 55.000800 43.394200 0
M  V30 13 H 76.488600 57.259300 40.281400 0
M  V30 14 R 73.304000 52.815200 41.689800 0
M  V30 END ATOM
M  V30 BEGIN BOND
M  V30 1 1 2 1
M  V30 2 1 3 2
M  V30 3 1 4 3
M  V30 4 2 5 4
M  V30 5 1 6 5
M  V30 6 2 7 3
M  V30 7 1 7 6
M  V30 8 1 8 1
M  V30 9 1 9 1
M  V30 10 1 10 4
M  V30 11 1 11 5
M  V30 12 1 12 2
M  V30 13 1 13 6
M  V30 14 1 14 1
M  V30 END BOND
M  V30 END CTAB
M  END
$$$$
R-group 6 (5691-1)
     RDKit          3D

  0  0  0  0  0  0  0  0  0  0999 V3000
M  V30 BEGIN CTAB
M  V30 COUNTS 11 11 0 0 1
M  V30 BEGIN ATOM
M  V30 1 C 74.605700 54.887500 42.524100 0
M  V30 2 C 74.230700 55.982800 41.610200 0
M  V30 3 N 73.672200 57.131200 41.949300 0
M  V30 4 C 73.272200 57.658000 40.737400 0
M  V30 5 C 73.722900 56.858000 39.724800 0
M  V30 6 O 74.400300 55.823500 40.272700 0
M  V30 7 H 74.471800 55.223400 43.553300 0
M  V30 8 H 75.672200 54.766500 42.385400 0
M  V30 9 H 72.715900 58.582100 40.685300 0
M  V30 10 H 73.672300 56.896700 38.645800 0
M  V30 11 R 73.897400 53.521900 42.309000 0
M  V30 END ATOM
M  V30 BEGIN BOND
M  V30 1 1 2 1
M  V30 2 2 3 2
M  V30 3 1 4 3
M  V30 4 2 5 4
M  V30 5 1 6 2
M  V30 6 1 6 5
M  V30 7 1 7 1
M  V30 8 1 8 1
M  V30 9 1 9 4
M  V30 10 1 10 5
M  V30 11 1 11 1
M  V30 END BOND
M  V30 END CTAB
M  END
$$$$
R-group 7 (8711-1)
     RDKit          3D

  0  0  0  0  0  0  0  0  0  0999 V3000
M  V30 BEGIN CTAB
M  V30 COUNTS 21 20 0 0 1
M  V30 BEGIN ATOM
M  V30 1 O 74.140700 54.870400 42.275800 0
M  V30 2 C 73.621000 55.740000 43.254300 0
M  V30 3 C 73.940400 57.207500 42.969400 0
M  V30 4 C 73.561700 57.653100 41.553300 0
M  V30 5 C 74.381000 56.969100 40.437900 0
M  V30 6 C 75.906000 57.044000 40.654300 0
M  V30 7 C 73.933300 57.409100 39.066500 0
M  V30 8 H 74.103300 55.444900 44.174100 0
M  V30 9 H 72.536800 55.649800 43.324400 0
M  V30 10 H 74.987100 57.417500 43.183100 0
M  V30 11 H 73.383700 57.815800 43.683200 0
M  V30 12 H 73.671900 58.732000 41.511100 0
M  V30 13 H 72.501000 57.474600 41.383900 0
M  V30 14 H 74.113800 55.926300 40.370100 0
M  V30 15 H 76.300900 58.058000 40.624000 0
M  V30 16 H 76.419900 56.458100 39.906700 0
M  V30 17 H 76.209700 56.598400 41.599900 0
M  V30 18 H 74.070800 58.479700 38.924700 0
M  V30 19 H 74.472300 56.858100 38.293600 0
M  V30 20 H 72.872700 57.204300 38.922500 0
M  V30 21 R 73.660400 53.541600 42.287400 0
M  V30 END ATOM
M  V30 BEGIN BOND
M  V30 1 1 2 1
M  V30 2 1 3 2
M  V30 3 1 4 3
M  V30 4 1 5 4
M  V30 5 1 6 5
M  V30 6 1 7 5
M  V30 7 1 8 2
M  V30 8 1 9 2
M  V30 9 1 10 3
M  V30 10 1 11 3
M  V30 11 1 12 4
M  V30 12 1 13 4
M  V30 13 1 14 5
M  V30 14 1 15 6
M  V30 15 1 16 6
M  V30 16 1 17 6
M  V30 17 1 18 7
M  V30 18 1 19 7
M  V30 19 1 20 7
M  V30 20 1 21 1
M  V30 END BOND
M  V30 END CTAB
M  END
$$$$
R-group 8 (16172-4)
     RDKit          3D

  0  0  0  0  0  0  0  0  0  0999 V3000
M  V30 BEGIN CTAB
M  V30 COUNTS 16 16 0 0 1
M  V30 BEGIN ATOM
M  V30 1 O 73.672100 54.954500 41.745100 0
M  V30 2 C 73.122500 55.497900 42.924700 0
M  V30 3 C 72.996900 56.984800 42.940100 0 CFG=1
M  V30 4 C 74.218600 57.732700 42.563600 0
M  V30 5 C 72.977900 57.867200 41.709600 0 CFG=2
M  V30 6 C 72.119400 59.116900 41.724900 0
M  V30 7 H 72.124400 55.101200 43.119100 0
M  V30 8 H 73.812600 55.258100 43.724600 0
M  V30 9 H 72.473300 57.363100 43.817200 0
M  V30 10 H 74.472200 58.458000 43.324700 0
M  V30 11 H 75.058700 57.181100 42.144900 0
M  V30 12 H 72.968700 57.337900 40.758600 0
M  V30 13 H 72.472200 59.845200 42.447100 0
M  V30 14 H 72.072200 59.577000 40.739000 0
M  V30 15 H 71.115000 58.858000 42.028100 0
M  V30 16 R 73.502400 53.545200 41.687500 0
M  V30 END ATOM
M  V30 BEGIN BOND
M  V30 1 1 2 1
M  V30 2 1 3 2
M  V30 3 1 4 3
M  V30 4 1 5 3
M  V30 5 1 5 4
M  V30 6 1 6 5
M  V30 7 1 7 2
M  V30 8 1 8 2
M  V30 9 1 3 9 CFG=1
M  V30 10 1 10 4
M  V30 11 1 11 4
M  V30 12 1 5 12 CFG=3
M  V30 13 1 13 6
M  V30 14 1 14 6
M  V30 15 1 15 6
M  V30 16 1 16 1
M  V30 END BOND
M  V30 END CTAB
M  END
$$$$
R-group 9 (20046-1)
     RDKit          3D

  0  0  0  0  0  0  0  0  0  0999 V3000
M  V30 BEGIN CTAB
M  V30 COUNTS 17 17 0 0 1
M  V30 BEGIN ATOM
M  V30 1 N 74.135700 54.956300 42.007400 0
M  V30 2 C 73.754700 55.656900 43.226000 0
M  V30 3 C 74.196500 57.075300 42.972500 0
M  V30 4 C 74.118800 57.193200 41.462900 0 CFG=1
M  V30 5 C 73.164500 58.331800 41.057900 0
M  V30 6 F 75.382400 57.258000 41.025400 0
M  V30 7 C 73.663400 55.839300 40.952600 0
M  V30 8 H 72.668100 55.639400 43.324700 0
M  V30 9 H 74.217900 55.258100 44.124400 0
M  V30 10 H 73.551600 57.775900 43.503900 0
M  V30 11 H 75.217200 57.234300 43.324500 0
M  V30 12 H 72.125800 58.038800 41.181700 0
M  V30 13 H 73.272200 59.194000 41.724500 0
M  V30 14 H 73.272200 58.615700 40.011100 0
M  V30 15 H 74.112200 55.623100 39.983900 0
M  V30 16 H 72.590100 55.770700 40.817400 0
M  V30 17 R 73.701200 53.559200 41.979700 0
M  V30 END ATOM
M  V30 BEGIN BOND
M  V30 1 1 2 1
M  V30 2 1 3 2
M  V30 3 1 4 3
M  V30 4 1 5 4
M  V30 5 1 4 6 CFG=3
M  V30 6 1 7 1
M  V30 7 1 7 4
M  V30 8 1 8 2
M  V30 9 1 9 2
M  V30 10 1 10 3
M  V30 11 1 11 3
M  V30 12 1 12 5
M  V30 13 1 13 5
M  V30 14 1 14 5
M  V30 15 1 15 7
M  V30 16 1 16 7
M  V30 17 1 17 1
M  V30 END BOND
M  V30 END CTAB
M  END
$$$$
R-group 10 (31381-1)
     RDKit          3D

  0  0  0  0  0  0  0  0  0  0999 V3000
M  V30 BEGIN CTAB
M  V30 COUNTS 14 14 0 0 1
M  V30 BEGIN ATOM
M  V30 1 C 74.161800 54.814100 41.700300 0
M  V30 2 C 75.272200 55.414900 41.000600 0
M  V30 3 C 75.415000 56.747400 41.085000 0
M  V30 4 C 76.655300 57.510200 40.709100 0
M  V30 5 O 74.487000 57.528800 41.724700 0
M  V30 6 C 73.671700 57.027600 42.584600 0
M  V30 7 O 72.997600 57.716200 43.324700 0
M  V30 8 C 73.494600 55.598000 42.524900 0
M  V30 9 H 76.070400 54.825000 40.576900 0
M  V30 10 H 77.236900 57.731200 41.605300 0
M  V30 11 H 77.258300 56.849200 40.125100 0
M  V30 12 H 76.473700 58.426700 40.148500 0
M  V30 13 H 72.670000 55.231300 43.111300 0
M  V30 14 R 73.744800 53.367800 41.667600 0
M  V30 END ATOM
M  V30 BEGIN BOND
M  V30 1 1 2 1
M  V30 2 2 3 2
M  V30 3 1 4 3
M  V30 4 1 5 3
M  V30 5 1 6 5
M  V30 6 2 7 6
M  V30 7 2 8 1
M  V30 8 1 8 6
M  V30 9 1 9 2
M  V30 10 1 10 4
M  V30 11 1 11 4
M  V30 12 1 12 4
M  V30 13 1 13 8
M  V30 14 1 14 1
M  V30 END BOND
M  V30 END CTAB
M  END
$$$$
R-group 11 (6598-1)
     RDKit          3D

  0  0  0  0  0  0  0  0  0  0999 V3000
M  V30 BEGIN CTAB
M  V30 COUNTS 12 11 0 0 1
M  V30 BEGIN ATOM
M  V30 1 C 73.413300 57.659500 43.263400 0
M  V30 2 C 73.340700 56.132100 43.208800 0
M  V30 3 S 74.080200 55.490500 41.660400 0 CFG=1
M  V30 4 N 73.305000 56.128900 40.454000 0
M  V30 5 O 75.532400 55.659200 41.763000 0
M  V30 6 H 72.872900 58.046000 44.125500 0
M  V30 7 H 74.445500 58.007700 43.321300 0
M  V30 8 H 72.957300 58.107800 42.380400 0
M  V30 9 H 72.317400 55.777500 43.324700 0
M  V30 10 H 73.900400 55.658400 44.015600 0
M  V30 11 H 73.501800 57.125500 40.333100 0
M  V30 12 R 73.617300 53.684400 41.766300 0
M  V30 END ATOM
M  V30 BEGIN BOND
M  V30 1 1 2 1
M  V30 2 1 3 2
M  V30 3 2 4 3
M  V30 4 2 5 3
M  V30 5 1 6 1
M  V30 6 1 7 1
M  V30 7 1 8 1
M  V30 8 1 9 2
M  V30 9 1 10 2
M  V30 10 1 11 4
M  V30 11 1 3 12 CFG=1
M  V30 END BOND
M  V30 END CTAB
M  END
$$$$
R-group 12 (37771-2)
     RDKit          3D

  0  0  0  0  0  0  0  0  0  0999 V3000
M  V30 BEGIN CTAB
M  V30 COUNTS 18 17 0 0 1
M  V30 BEGIN ATOM
M  V30 1 C 73.157000 57.724100 43.476200 0
M  V30 2 C 73.032400 56.338200 42.837700 0
M  V30 3 C 74.223700 55.378500 42.781500 0 CFG=2
M  V30 4 C 75.389900 55.942200 41.931300 0 CFG=1
M  V30 5 C 75.074400 56.707700 40.629300 0
M  V30 6 O 76.072200 56.858000 42.729000 0
M  V30 7 H 72.472200 58.417000 42.988100 0
M  V30 8 H 72.871900 57.699800 44.524300 0
M  V30 9 H 74.142700 58.161200 43.382300 0
M  V30 10 H 72.872300 56.527300 41.785800 0
M  V30 11 H 72.183400 55.843800 43.324700 0
M  V30 12 H 74.570400 55.315200 43.812800 0
M  V30 13 H 76.072200 55.132000 41.712300 0
M  V30 14 H 74.481300 56.131500 39.923700 0
M  V30 15 H 74.530300 57.630600 40.829900 0
M  V30 16 H 75.999400 56.987400 40.124700 0
M  V30 17 H 75.469200 57.525500 43.016000 0
M  V30 18 R 73.793000 53.920900 42.369800 0
M  V30 END ATOM
M  V30 BEGIN BOND
M  V30 1 1 2 1
M  V30 2 1 3 2
M  V30 3 1 4 3
M  V30 4 1 5 4
M  V30 5 1 6 4
M  V30 6 1 7 1
M  V30 7 1 8 1
M  V30 8 1 9 1
M  V30 9 1 10 2
M  V30 10 1 11 2
M  V30 11 1 3 12 CFG=1
M  V30 12 1 4 13 CFG=3
M  V30 13 1 14 5
M  V30 14 1 15 5
M  V30 15 1 16 5
M  V30 16 1 17 6
M  V30 17 1 18 3
M  V30 END BOND
M  V30 END CTAB
M  END
$$$$
R-group 13 (1462-1)
     RDKit          3D

  0  0  0  0  0  0  0  0  0  0999 V3000
M  V30 BEGIN CTAB
M  V30 COUNTS 12 11 0 0 1
M  V30 BEGIN ATOM
M  V30 1 C 76.205100 57.091600 40.524700 0
M  V30 2 C 74.881000 56.461600 40.924600 0
M  V30 3 O 73.863400 56.673600 40.266800 0
M  V30 4 N 74.917100 55.702300 42.019100 0
M  V30 5 C 73.756600 55.127700 42.667200 0
M  V30 6 H 76.673700 57.595500 41.371000 0
M  V30 7 H 76.872200 56.312100 40.168700 0
M  V30 8 H 76.072400 57.819100 39.725200 0
M  V30 9 H 72.872300 55.729000 42.481500 0
M  V30 10 H 73.965300 55.258100 43.724700 0
M  V30 11 H 75.806400 55.581200 42.480000 0
M  V30 12 R 73.512100 53.636700 42.317400 0
M  V30 END ATOM
M  V30 BEGIN BOND
M  V30 1 1 2 1
M  V30 2 2 3 2
M  V30 3 1 4 2
M  V30 4 1 5 4
M  V30 5 1 6 1
M  V30 6 1 7 1
M  V30 7 1 8 1
M  V30 8 1 9 5
M  V30 9 1 10 5
M  V30 10 1 11 4
M  V30 11 1 12 5
M  V30 END BOND
M  V30 END CTAB
M  END
$$$$
R-group 14 (16821-1)
     RDKit          3D

  0  0  0  0  0  0  0  0  0  0999 V3000
M  V30 BEGIN CTAB
M  V30 COUNTS 15 14 0 0 1
M  V30 BEGIN ATOM
M  V30 1 C 76.626000 57.468200 40.716700 0
M  V30 2 C 75.205700 56.914000 40.750300 0
M  V30 3 O 75.178300 55.656900 41.417600 0
M  V30 4 C 73.860300 55.258500 41.773900 0 CFG=2
M  V30 5 C 73.459600 55.923500 43.089600 0
M  V30 6 H 76.645300 58.453200 40.254700 0
M  V30 7 H 77.043700 57.554500 41.719400 0
M  V30 8 H 77.271700 56.829600 40.124700 0
M  V30 9 H 74.822100 56.798100 39.735200 0
M  V30 10 H 74.569300 57.643900 41.249400 0
M  V30 11 H 73.173100 55.658300 41.027300 0
M  V30 12 H 72.419700 55.677400 43.291200 0
M  V30 13 H 74.074300 55.574700 43.915500 0
M  V30 14 H 73.528000 57.009900 43.060300 0
M  V30 15 R 73.665100 53.711800 41.771200 0
M  V30 END ATOM
M  V30 BEGIN BOND
M  V30 1 1 2 1
M  V30 2 1 3 2
M  V30 3 1 4 3
M  V30 4 1 5 4
M  V30 5 1 6 1
M  V30 6 1 7 1
M  V30 7 1 8 1
M  V30 8 1 9 2
M  V30 9 1 10 2
M  V30 10 1 4 11 CFG=3
M  V30 11 1 12 5
M  V30 12 1 13 5
M  V30 13 1 14 5
M  V30 14 1 15 4
M  V30 END BOND
M  V30 END CTAB
M  END
$$$$
R-group 15 (17373-1)
     RDKit          3D

  0  0  0  0  0  0  0  0  0  0999 V3000
M  V30 BEGIN CTAB
M  V30 COUNTS 12 11 0 0 1
M  V30 BEGIN ATOM
M  V30 1 C 74.614900 55.227900 42.211300 0
M  V30 2 O 73.672300 56.246900 41.948100 0
M  V30 3 C 74.123100 57.298400 41.113400 0
M  V30 4 C 74.080600 56.881300 39.637200 0
M  V30 5 F 72.857400 56.459200 39.324900 0
M  V30 6 H 75.015100 55.422200 43.206900 0
M  V30 7 H 75.470300 55.265000 41.536300 0
M  V30 8 H 73.451100 58.143600 41.263600 0
M  V30 9 H 75.119600 57.635300 41.403300 0
M  V30 10 H 74.312900 57.713200 38.973000 0
M  V30 11 H 74.776400 56.076500 39.415500 0
M  V30 12 R 73.930700 53.841600 42.151300 0
M  V30 END ATOM
M  V30 BEGIN BOND
M  V30 1 1 2 1
M  V30 2 1 3 2
M  V30 3 1 4 3
M  V30 4 1 5 4
M  V30 5 1 6 1
M  V30 6 1 7 1
M  V30 7 1 8 3
M  V30 8 1 9 3
M  V30 9 1 10 4
M  V30 10 1 11 4
M  V30 11 1 12 1
M  V30 END BOND
M  V30 END CTAB
M  END
$$$$
R-group 16 (22920-4)
     RDKit          3D

  0  0  0  0  0  0  0  0  0  0999 V3000
M  V30 BEGIN CTAB
M  V30 COUNTS 21 22 0 0 1
M  V30 BEGIN ATOM
M  V30 1 O 73.555500 54.554100 41.760900 0
M  V30 2 C 74.028400 55.256300 42.874100 0 CFG=1
M  V30 3 C 75.446000 55.688400 42.577500 0
M  V30 4 C 75.318500 57.072600 41.988100 0 CFG=1
M  V30 5 C 75.563400 57.128400 40.491400 0
M  V30 6 C 74.153200 57.047200 39.903300 0
M  V30 7 O 73.272200 57.592800 40.881900 0
M  V30 8 C 73.844500 57.504100 42.183700 0 CFG=1
M  V30 9 C 73.167700 56.476500 43.103100 0
M  V30 10 H 74.072800 54.671400 43.743700 0
M  V30 11 H 76.014300 55.734700 43.508000 0
M  V30 12 H 75.955800 54.991100 41.914700 0
M  V30 13 H 76.049700 57.657800 42.533100 0
M  V30 14 H 76.075200 58.057200 40.234800 0
M  V30 15 H 76.202500 56.325500 40.125600 0
M  V30 16 H 73.874100 56.010800 39.719100 0
M  V30 17 H 74.069500 57.577600 38.955700 0
M  V30 18 H 73.774700 58.459000 42.666300 0
M  V30 19 H 72.083400 56.281800 43.079000 0
M  V30 20 H 73.252000 56.816700 44.123900 0
M  V30 21 R 73.426300 53.155800 41.907000 0
M  V30 END ATOM
M  V30 BEGIN BOND
M  V30 1 1 2 1
M  V30 2 1 3 2
M  V30 3 1 4 3
M  V30 4 1 5 4
M  V30 5 1 6 5
M  V30 6 1 7 6
M  V30 7 1 8 4
M  V30 8 1 8 7
M  V30 9 1 9 2
M  V30 10 1 9 8
M  V30 11 1 2 10 CFG=1
M  V30 12 1 11 3
M  V30 13 1 12 3
M  V30 14 1 4 13 CFG=1
M  V30 15 1 14 5
M  V30 16 1 15 5
M  V30 17 1 16 6
M  V30 18 1 17 6
M  V30 19 1 8 18 CFG=1
M  V30 20 1 19 9
M  V30 21 1 20 9
M  V30 22 1 21 1
M  V30 END BOND
M  V30 END CTAB
M  END
$$$$
R-group 17 (15577-3)
     RDKit          3D

  0  0  0  0  0  0  0  0  0  0999 V3000
M  V30 BEGIN CTAB
M  V30 COUNTS 22 22 0 0 1
M  V30 BEGIN ATOM
M  V30 1 C 74.116000 54.847500 42.018000 0 CFG=2
M  V30 2 C 73.627900 55.676300 43.225600 0
M  V30 3 C 73.900400 57.190400 43.136400 0
M  V30 4 C 73.516200 57.760200 41.773700 0
M  V30 5 C 74.184100 56.946500 40.666000 0 CFG=2
M  V30 6 C 75.721100 57.065900 40.614600 0
M  V30 7 O 73.671100 57.258000 39.418900 0
M  V30 8 C 73.680600 55.531000 40.731400 0
M  V30 9 H 75.204500 54.857600 42.024600 0
M  V30 10 H 72.544500 55.579100 43.324000 0
M  V30 11 H 74.073600 55.259900 44.125300 0
M  V30 12 H 73.309300 57.707500 43.894100 0
M  V30 13 H 74.952600 57.394800 43.325100 0
M  V30 14 H 73.692200 58.829200 41.725500 0
M  V30 15 H 72.449100 57.666300 41.662300 0
M  V30 16 H 76.203000 56.816600 41.557800 0
M  V30 17 H 76.105200 56.368900 39.878100 0
M  V30 18 H 76.081500 58.055000 40.336000 0
M  V30 19 H 74.044200 55.039800 39.843400 0
M  V30 20 H 72.595000 55.491300 40.636100 0
M  V30 21 H 72.729500 57.243100 39.462400 0
M  V30 22 R 73.666600 53.369200 42.078500 0
M  V30 END ATOM
M  V30 BEGIN BOND
M  V30 1 1 2 1
M  V30 2 1 3 2
M  V30 3 1 4 3
M  V30 4 1 5 4
M  V30 5 1 6 5
M  V30 6 1 5 7 CFG=3
M  V30 7 1 8 1
M  V30 8 1 8 5
M  V30 9 1 1 9 CFG=3
M  V30 10 1 10 2
M  V30 11 1 11 2
M  V30 12 1 12 3
M  V30 13 1 13 3
M  V30 14 1 14 4
M  V30 15 1 15 4
M  V30 16 1 16 6
M  V30 17 1 17 6
M  V30 18 1 18 6
M  V30 19 1 19 8
M  V30 20 1 20 8
M  V30 21 1 21 7
M  V30 22 1 22 1
M  V30 END BOND
M  V30 END CTAB
M  END
$$$$
R-group 18 (16174-1)
     RDKit          3D

  0  0  0  0  0  0  0  0  0  0999 V3000
M  V30 BEGIN CTAB
M  V30 COUNTS 17 17 0 0 1
M  V30 BEGIN ATOM
M  V30 1 O 73.424800 54.533100 42.403800 0
M  V30 2 C 74.629400 55.270500 42.401300 0
M  V30 3 C 74.404900 56.576900 41.686600 0
M  V30 4 C 73.847200 57.574200 42.703500 0
M  V30 5 C 72.862000 58.523600 42.151200 0
M  V30 6 N 72.072300 59.258000 41.725100 0
M  V30 7 C 74.023700 56.801000 40.215800 0
M  V30 8 C 75.463000 56.789300 40.610400 0
M  V30 9 H 75.463800 54.738400 41.940500 0
M  V30 10 H 74.941400 55.452500 43.430900 0
M  V30 11 H 74.653700 58.057700 43.245100 0
M  V30 12 H 73.281900 57.027900 43.458500 0
M  V30 13 H 73.627400 55.971500 39.640800 0
M  V30 14 H 73.653500 57.768100 39.884300 0
M  V30 15 H 76.069000 57.660900 40.705200 0
M  V30 16 H 76.027700 55.939400 40.234700 0
M  V30 17 R 73.528400 53.215400 41.906200 0
M  V30 END ATOM
M  V30 BEGIN BOND
M  V30 1 1 2 1
M  V30 2 1 3 2
M  V30 3 1 4 3
M  V30 4 1 5 4
M  V30 5 3 6 5
M  V30 6 1 7 3
M  V30 7 1 8 3
M  V30 8 1 8 7
M  V30 9 1 9 2
M  V30 10 1 10 2
M  V30 11 1 11 4
M  V30 12 1 12 4
M  V30 13 1 13 7
M  V30 14 1 14 7
M  V30 15 1 15 8
M  V30 16 1 16 8
M  V30 17 1 17 1
M  V30 END BOND
M  V30 END CTAB
M  END
$$$$
R-group 19 (729-2)
     RDKit          3D

  0  0  0  0  0  0  0  0  0  0999 V3000
M  V30 BEGIN CTAB
M  V30 COUNTS 12 11 0 0 1
M  V30 BEGIN ATOM
M  V30 1 C 73.825400 54.955800 42.666500 0
M  V30 2 C 74.992900 55.666800 41.973000 0 CFG=2
M  V30 3 O 75.672100 56.458000 42.924700 0
M  V30 4 C 74.577700 56.633900 40.867800 0
M  V30 5 F 75.705800 57.257600 40.524700 0
M  V30 6 F 74.073000 56.022100 39.798500 0
M  V30 7 F 73.672300 57.502100 41.324900 0
M  V30 8 H 72.898900 55.519000 42.562000 0
M  V30 9 H 74.072200 55.005200 43.724700 0
M  V30 10 H 75.719100 54.948600 41.603600 0
M  V30 11 H 76.274400 57.023200 42.460900 0
M  V30 12 R 73.591800 53.472000 42.293500 0
M  V30 END ATOM
M  V30 BEGIN BOND
M  V30 1 1 2 1
M  V30 2 1 3 2
M  V30 3 1 4 2
M  V30 4 1 5 4
M  V30 5 1 6 4
M  V30 6 1 7 4
M  V30 7 1 8 1
M  V30 8 1 9 1
M  V30 9 1 2 10 CFG=3
M  V30 10 1 11 3
M  V30 11 1 12 1
M  V30 END BOND
M  V30 END CTAB
M  END
$$$$
R-group 20 (24530-1)
     RDKit          3D

  0  0  0  0  0  0  0  0  0  0999 V3000
M  V30 BEGIN CTAB
M  V30 COUNTS 4 3 0 0 1
M  V30 BEGIN ATOM
M  V30 1 O 73.672200 55.142100 42.224100 0
M  V30 2 C 74.756900 55.764200 41.824600 0
M  V30 3 N 75.628000 56.457900 41.506600 0
M  V30 4 R 73.504700 53.784600 41.820400 0
M  V30 END ATOM
M  V30 BEGIN BOND
M  V30 1 1 2 1
M  V30 2 3 3 2
M  V30 3 1 4 1
M  V30 END BOND
M  V30 END CTAB
M  END
$$$$
R-group 21 (821-1)
     RDKit          3D

  0  0  0  0  0  0  0  0  0  0999 V3000
M  V30 BEGIN CTAB
M  V30 COUNTS 14 13 0 0 1
M  V30 BEGIN ATOM
M  V30 1 C 72.892500 58.515900 42.105500 0
M  V30 2 C 73.275900 57.762800 43.380800 0
M  V30 3 C 73.264000 56.221800 43.257200 0
M  V30 4 S 74.111200 55.582000 41.754400 0
M  V30 5 O 75.543500 55.740000 42.002800 0
M  V30 6 O 73.535100 56.192800 40.538500 0
M  V30 7 H 72.610100 59.551900 42.249800 0
M  V30 8 H 73.729600 58.491500 41.416400 0
M  V30 9 H 72.073800 58.054800 41.578600 0
M  V30 10 H 72.606500 58.043700 44.193400 0
M  V30 11 H 74.281700 58.077200 43.679900 0
M  V30 12 H 72.241200 55.851800 43.320600 0
M  V30 13 H 73.776900 55.734800 44.076900 0
M  V30 14 R 73.619800 53.783000 41.782200 0
M  V30 END ATOM
M  V30 BEGIN BOND
M  V30 1 1 2 1
M  V30 2 1 3 2
M  V30 3 1 4 3
M  V30 4 2 5 4
M  V30 5 2 6 4
M  V30 6 1 7 1
M  V30 7 1 8 1
M  V30 8 1 9 1
M  V30 9 1 10 2
M  V30 10 1 11 2
M  V30 11 1 12 3
M  V30 12 1 13 3
M  V30 13 1 14 4
M  V30 END BOND
M  V30 END CTAB
M  END
$$$$
R-group 22 (9120-1)
     RDKit          3D

  0  0  0  0  0  0  0  0  0  0999 V3000
M  V30 BEGIN CTAB
M  V30 COUNTS 14 13 0 0 1
M  V30 BEGIN ATOM
M  V30 1 C 74.111600 55.503600 41.931800 0
M  V30 2 C 73.422100 56.033300 43.223000 0
M  V30 3 C 75.614100 55.804200 42.145700 0
M  V30 4 C 73.684500 56.397900 40.699900 0
M  V30 5 F 74.582200 56.360500 39.725200 0
M  V30 6 F 72.531300 56.130500 40.114800 0
M  V30 7 F 73.595300 57.657300 41.103700 0
M  V30 8 H 73.463800 57.117000 43.325700 0
M  V30 9 H 72.377500 55.739000 43.319000 0
M  V30 10 H 73.936600 55.657900 44.104100 0
M  V30 11 H 75.805300 56.877900 42.154600 0
M  V30 12 H 75.988700 55.425800 43.095700 0
M  V30 13 H 76.209700 55.384700 41.341400 0
M  V30 14 R 73.819800 53.933700 41.794500 0
M  V30 END ATOM
M  V30 BEGIN BOND
M  V30 1 1 2 1
M  V30 2 1 3 1
M  V30 3 1 4 1
M  V30 4 1 5 4
M  V30 5 1 6 4
M  V30 6 1 7 4
M  V30 7 1 8 2
M  V30 8 1 9 2
M  V30 9 1 10 2
M  V30 10 1 11 3
M  V30 11 1 12 3
M  V30 12 1 13 3
M  V30 13 1 14 1
M  V30 END BOND
M  V30 END CTAB
M  END
$$$$
R-group 23 (27458-1)
     RDKit          3D

  0  0  0  0  0  0  0  0  0  0999 V3000
M  V30 BEGIN CTAB
M  V30 COUNTS 14 14 0 0 1
M  V30 BEGIN ATOM
M  V30 1 C 74.191300 54.930300 41.730400 0
M  V30 2 N 75.272700 55.364500 41.022800 0
M  V30 3 C 75.421100 56.577300 41.530100 0
M  V30 4 C 76.546400 57.520700 41.232500 0
M  V30 5 N 74.440100 56.868600 42.393100 0
M  V30 6 C 74.059900 58.057900 43.095400 0
M  V30 7 N 73.672100 55.801600 42.559200 0
M  V30 8 H 77.210100 57.258700 40.410500 0
M  V30 9 H 76.138500 58.457800 40.924900 0
M  V30 10 H 77.142600 57.658300 42.128500 0
M  V30 11 H 74.872200 58.427000 43.724100 0
M  V30 12 H 73.743500 58.791200 42.351300 0
M  V30 13 H 73.200100 57.862400 43.737700 0
M  V30 14 R 73.691400 53.534900 41.767100 0
M  V30 END ATOM
M  V30 BEGIN BOND
M  V30 1 1 2 1
M  V30 2 2 3 2
M  V30 3 1 4 3
M  V30 4 1 5 3
M  V30 5 1 6 5
M  V30 6 2 7 1
M  V30 7 1 7 5
M  V30 8 1 8 4
M  V30 9 1 9 4
M  V30 10 1 10 4
M  V30 11 1 11 6
M  V30 12 1 12 6
M  V30 13 1 13 6
M  V30 14 1 14 1
M  V30 END BOND
M  V30 END CTAB
M  END
$$$$
R-group 24 (28259-1)
     RDKit          3D

  0  0  0  0  0  0  0  0  0  0999 V3000
M  V30 BEGIN CTAB
M  V30 COUNTS 19 18 0 0 1
M  V30 BEGIN ATOM
M  V30 1 C 73.416400 54.877700 42.182800 0
M  V30 2 N 73.629100 55.533600 40.896700 0
M  V30 3 C 74.165700 56.885200 40.852600 0
M  V30 4 C 74.127000 57.152900 39.327800 0
M  V30 5 C 73.256700 57.861700 41.633200 0
M  V30 6 C 75.613100 56.785000 41.387600 0
M  V30 7 F 76.072200 55.658000 40.924700 0
M  V30 8 F 75.673400 56.787700 42.718300 0
M  V30 9 F 76.472200 57.658000 40.924600 0
M  V30 10 H 74.176500 55.140100 42.911400 0
M  V30 11 H 72.475900 55.203600 42.620600 0
M  V30 12 H 74.291000 54.958200 40.394500 0
M  V30 13 H 74.642300 58.050700 39.009100 0
M  V30 14 H 74.597000 56.347500 38.764600 0
M  V30 15 H 73.101800 57.233600 38.964100 0
M  V30 16 H 73.672500 58.857900 41.725000 0
M  V30 17 H 72.294500 57.978100 41.138400 0
M  V30 18 H 73.068900 57.522700 42.651700 0
M  V30 19 R 73.399500 53.340300 41.989000 0
M  V30 END ATOM
M  V30 BEGIN BOND
M  V30 1 1 2 1
M  V30 2 1 3 2
M  V30 3 1 4 3
M  V30 4 1 5 3
M  V30 5 1 6 3
M  V30 6 1 7 6
M  V30 7 1 8 6
M  V30 8 1 9 6
M  V30 9 1 10 1
M  V30 10 1 11 1
M  V30 11 1 12 2
M  V30 12 1 13 4
M  V30 13 1 14 4
M  V30 14 1 15 4
M  V30 15 1 16 5
M  V30 16 1 17 5
M  V30 17 1 18 5
M  V30 18 1 19 1
M  V30 END BOND
M  V30 END CTAB
M  END
$$$$
R-group 25 (615-1)
     RDKit          3D

  0  0  0  0  0  0  0  0  0  0999 V3000
M  V30 BEGIN CTAB
M  V30 COUNTS 21 20 0 0 1
M  V30 BEGIN ATOM
M  V30 1 C 74.317700 55.062300 42.319800 0
M  V30 2 O 75.272400 55.288400 41.598400 0
M  V30 3 N 73.672500 56.067500 42.921500 0
M  V30 4 C 73.872600 57.451200 42.475500 0
M  V30 5 C 73.019300 57.836700 41.232900 0
M  V30 6 C 72.944200 56.831600 40.033800 0
M  V30 7 C 74.174000 56.970400 39.131800 0
M  V30 8 C 71.630500 56.761800 39.223000 0
M  V30 9 H 74.923400 57.656300 42.279500 0
M  V30 10 H 73.603100 58.083700 43.316500 0
M  V30 11 H 73.272000 58.822200 40.863800 0
M  V30 12 H 72.072300 58.057300 41.660200 0
M  V30 13 H 72.943400 55.830700 40.421200 0
M  V30 14 H 74.371500 58.016200 38.924800 0
M  V30 15 H 74.048400 56.454800 38.180900 0
M  V30 16 H 75.082200 56.588300 39.591300 0
M  V30 17 H 71.711500 57.256800 38.269500 0
M  V30 18 H 71.406200 55.728500 38.951700 0
M  V30 19 H 70.756000 57.153600 39.724400 0
M  V30 20 H 72.910600 55.844700 43.554500 0
M  V30 21 R 73.788100 53.625700 42.422500 0
M  V30 END ATOM
M  V30 BEGIN BOND
M  V30 1 2 2 1
M  V30 2 1 3 1
M  V30 3 1 4 3
M  V30 4 1 5 4
M  V30 5 1 6 5
M  V30 6 1 7 6
M  V30 7 1 8 6
M  V30 8 1 9 4
M  V30 9 1 10 4
M  V30 10 1 11 5
M  V30 11 1 12 5
M  V30 12 1 13 6
M  V30 13 1 14 7
M  V30 14 1 15 7
M  V30 15 1 16 7
M  V30 16 1 17 8
M  V30 17 1 18 8
M  V30 18 1 19 8
M  V30 19 1 20 3
M  V30 20 1 21 1
M  V30 END BOND
M  V30 END CTAB
M  END
$$$$
R-group 26 (11033-1)
     RDKit          3D

  0  0  0  0  0  0  0  0  0  0999 V3000
M  V30 BEGIN CTAB
M  V30 COUNTS 17 17 0 0 1
M  V30 BEGIN ATOM
M  V30 1 C 73.153200 54.197700 42.441100 0
M  V30 2 C 73.672300 55.067000 41.359500 0
M  V30 3 C 72.875000 55.260000 40.205200 0
M  V30 4 C 73.271900 56.238100 39.325000 0
M  V30 5 C 74.474100 56.859900 39.593900 0
M  V30 6 C 75.272200 56.551700 40.720100 0
M  V30 7 C 76.598200 57.278500 41.004600 0
M  V30 8 N 74.864400 55.647100 41.611100 0
M  V30 9 H 72.090200 54.393700 42.588200 0
M  V30 10 H 73.671200 54.534000 43.325100 0
M  V30 11 H 71.903300 54.803700 40.093700 0
M  V30 12 H 72.642900 56.567400 38.524900 0
M  V30 13 H 74.785400 57.647900 38.925200 0
M  V30 14 H 77.215100 57.330600 40.124200 0
M  V30 15 H 76.446400 58.303700 41.323100 0
M  V30 16 H 77.269800 56.833000 41.739400 0
M  V30 17 R 73.398900 52.727000 42.147600 0
M  V30 END ATOM
M  V30 BEGIN BOND
M  V30 1 1 2 1
M  V30 2 2 3 2
M  V30 3 1 4 3
M  V30 4 2 5 4
M  V30 5 1 6 5
M  V30 6 1 7 6
M  V30 7 1 8 2
M  V30 8 2 8 6
M  V30 9 1 9 1
M  V30 10 1 10 1
M  V30 11 1 11 3
M  V30 12 1 12 4
M  V30 13 1 13 5
M  V30 14 1 14 7
M  V30 15 1 15 7
M  V30 16 1 16 7
M  V30 17 1 17 1
M  V30 END BOND
M  V30 END CTAB
M  END
$$$$
R-group 27 (2603-1)
     RDKit          3D

  0  0  0  0  0  0  0  0  0  0999 V3000
M  V30 BEGIN CTAB
M  V30 COUNTS 13 12 0 0 1
M  V30 BEGIN ATOM
M  V30 1 C 76.052800 57.089500 43.187300 0
M  V30 2 O 74.664500 57.247000 42.923900 0
M  V30 3 C 73.941300 56.027100 42.932400 0
M  V30 4 C 74.249600 55.204800 41.672500 0 CFG=2
M  V30 5 O 73.673000 55.942900 40.609200 0
M  V30 6 H 76.521100 58.057500 43.324700 0
M  V30 7 H 76.232700 56.513000 44.096300 0
M  V30 8 H 76.567700 56.613400 42.353600 0
M  V30 9 H 72.874500 56.248200 42.985800 0
M  V30 10 H 74.174800 55.477300 43.840300 0
M  V30 11 H 75.317100 55.161300 41.474000 0
M  V30 12 H 73.964000 56.839000 40.691600 0
M  V30 13 R 73.730300 53.740800 41.760300 0
M  V30 END ATOM
M  V30 BEGIN BOND
M  V30 1 1 2 1
M  V30 2 1 3 2
M  V30 3 1 4 3
M  V30 4 1 5 4
M  V30 5 1 6 1
M  V30 6 1 7 1
M  V30 7 1 8 1
M  V30 8 1 9 3
M  V30 9 1 10 3
M  V30 10 1 4 11 CFG=3
M  V30 11 1 12 5
M  V30 12 1 13 4
M  V30 END BOND
M  V30 END CTAB
M  END
$$$$
R-group 28 (5018-2)
     RDKit          3D

  0  0  0  0  0  0  0  0  0  0999 V3000
M  V30 BEGIN CTAB
M  V30 COUNTS 15 14 0 0 1
M  V30 BEGIN ATOM
M  V30 1 C 74.080300 56.943300 39.861500 0
M  V30 2 C 72.905200 56.674500 40.809800 0
M  V30 3 C 73.339100 56.194800 42.232800 0 CFG=2
M  V30 4 C 74.006600 57.368800 42.960200 0
M  V30 5 O 74.257100 55.103300 42.125100 0
M  V30 6 H 73.727100 57.368200 38.924700 0
M  V30 7 H 74.792600 57.635300 40.297400 0
M  V30 8 H 74.622800 56.036100 39.619500 0
M  V30 9 H 72.250600 55.973100 40.298200 0
M  V30 10 H 72.341500 57.602500 40.900500 0
M  V30 11 H 72.523500 55.910100 42.923800 0
M  V30 12 H 74.072000 58.258900 42.335400 0
M  V30 13 H 73.386500 57.672200 43.802300 0
M  V30 14 H 75.006400 57.123700 43.324000 0
M  V30 15 R 73.720000 53.772700 42.167800 0
M  V30 END ATOM
M  V30 BEGIN BOND
M  V30 1 1 2 1
M  V30 2 1 3 2
M  V30 3 1 4 3
M  V30 4 1 5 3
M  V30 5 1 6 1
M  V30 6 1 7 1
M  V30 7 1 8 1
M  V30 8 1 9 2
M  V30 9 1 10 2
M  V30 10 1 3 11 CFG=1
M  V30 11 1 12 4
M  V30 12 1 13 4
M  V30 13 1 14 4
M  V30 14 1 15 5
M  V30 END BOND
M  V30 END CTAB
M  END
$$$$
R-group 29 (27065-1)
     RDKit          3D

  0  0  0  0  0  0  0  0  0  0999 V3000
M  V30 BEGIN CTAB
M  V30 COUNTS 18 18 0 0 1
M  V30 BEGIN ATOM
M  V30 1 N 73.507900 54.853500 42.129000 0
M  V30 2 S 74.967000 55.755200 41.976600 0
M  V30 3 O 75.604300 55.832300 43.295900 0
M  V30 4 O 75.670300 55.258400 40.802300 0
M  V30 5 C 74.419200 57.389200 41.522000 0 CFG=2
M  V30 6 C 73.479200 57.888800 42.598700 0
M  V30 7 C 72.484100 58.650600 41.779700 0
M  V30 8 O 72.472300 57.944100 40.525000 0
M  V30 9 C 73.672700 57.319500 40.202900 0
M  V30 10 H 75.286600 58.032900 41.353900 0
M  V30 11 H 72.956900 57.090600 43.118300 0
M  V30 12 H 74.001700 58.457600 43.361100 0
M  V30 13 H 71.511500 58.747400 42.261800 0
M  V30 14 H 72.831000 59.665400 41.722800 0
M  V30 15 H 74.146100 57.835300 39.365800 0
M  V30 16 H 73.456700 56.304800 39.866300 0
M  V30 17 H 73.100200 55.028400 43.053000 0
M  V30 18 R 73.494400 53.419200 41.901800 0
M  V30 END ATOM
M  V30 BEGIN BOND
M  V30 1 1 2 1
M  V30 2 2 3 2
M  V30 3 2 4 2
M  V30 4 1 5 2
M  V30 5 1 6 5
M  V30 6 1 7 6
M  V30 7 1 8 7
M  V30 8 1 9 5
M  V30 9 1 9 8
M  V30 10 1 5 10 CFG=3
M  V30 11 1 11 6
M  V30 12 1 12 6
M  V30 13 1 13 7
M  V30 14 1 14 7
M  V30 15 1 15 9
M  V30 16 1 16 9
M  V30 17 1 17 1
M  V30 18 1 18 1
M  V30 END BOND
M  V30 END CTAB
M  END
$$$$
R-group 30 (39644-1)
     RDKit          3D

  0  0  0  0  0  0  0  0  0  0999 V3000
M  V30 BEGIN CTAB
M  V30 COUNTS 15 15 0 0 1
M  V30 BEGIN ATOM
M  V30 1 C 73.578400 54.729900 42.762200 0
M  V30 2 C 74.268000 55.648000 41.833700 0
M  V30 3 C 75.518300 56.194800 41.961900 0
M  V30 4 N 75.699600 56.943100 40.822700 0
M  V30 5 C 76.799400 57.809600 40.481800 0
M  V30 6 C 74.569600 56.855500 40.117200 0
M  V30 7 N 73.669900 56.080100 40.660600 0
M  V30 8 H 72.562600 55.090700 42.924300 0
M  V30 9 H 74.073700 54.821200 43.725300 0
M  V30 10 H 76.263400 56.114500 42.738900 0
M  V30 11 H 77.671000 57.261700 40.133400 0
M  V30 12 H 76.502000 58.466800 39.670000 0
M  V30 13 H 77.005100 58.453500 41.325900 0
M  V30 14 H 74.409100 57.377900 39.184800 0
M  V30 15 R 73.521600 53.258200 42.286400 0
M  V30 END ATOM
M  V30 BEGIN BOND
M  V30 1 1 2 1
M  V30 2 2 3 2
M  V30 3 1 4 3
M  V30 4 1 5 4
M  V30 5 1 6 4
M  V30 6 1 7 2
M  V30 7 2 7 6
M  V30 8 1 8 1
M  V30 9 1 9 1
M  V30 10 1 10 3
M  V30 11 1 11 5
M  V30 12 1 12 5
M  V30 13 1 13 5
M  V30 14 1 14 6
M  V30 15 1 15 1
M  V30 END BOND
M  V30 END CTAB
M  END
$$$$
R-group 31 (23144-1)
     RDKit          3D

  0  0  0  0  0  0  0  0  0  0999 V3000
M  V30 BEGIN CTAB
M  V30 COUNTS 13 12 0 0 1
M  V30 BEGIN ATOM
M  V30 1 C 73.792900 54.998200 42.336100 0
M  V30 2 O 75.189000 55.259300 42.271800 0
M  V30 3 C 75.553300 56.626400 42.272700 0
M  V30 4 C 75.805300 57.042000 40.824000 0
M  V30 5 C 74.573000 56.941500 40.034500 0
M  V30 6 N 73.592500 56.847500 39.431900 0
M  V30 7 H 73.445500 55.257700 43.324600 0
M  V30 8 H 73.227900 55.644600 41.676400 0
M  V30 9 H 76.471800 56.735100 42.846200 0
M  V30 10 H 74.801600 57.253900 42.754600 0
M  V30 11 H 76.552200 56.393300 40.368100 0
M  V30 12 H 76.189400 58.057800 40.776500 0
M  V30 13 R 73.508500 53.518600 41.994800 0
M  V30 END ATOM
M  V30 BEGIN BOND
M  V30 1 1 2 1
M  V30 2 1 3 2
M  V30 3 1 4 3
M  V30 4 1 5 4
M  V30 5 3 6 5
M  V30 6 1 7 1
M  V30 7 1 8 1
M  V30 8 1 9 3
M  V30 9 1 10 3
M  V30 10 1 11 4
M  V30 11 1 12 4
M  V30 12 1 13 1
M  V30 END BOND
M  V30 END CTAB
M  END
$$$$
R-group 32 (22448-1)
     RDKit          3D

  0  0  0  0  0  0  0  0  0  0999 V3000
M  V30 BEGIN CTAB
M  V30 COUNTS 15 14 0 0 1
M  V30 BEGIN ATOM
M  V30 1 C 73.561700 54.934700 41.419400 0
M  V30 2 C 72.647000 55.438200 40.267100 0
M  V30 3 C 73.085300 55.610000 42.730800 0
M  V30 4 C 75.000000 55.393100 41.050500 0
M  V30 5 C 75.611500 56.213200 42.087300 0
M  V30 6 N 76.066700 56.858000 42.920000 0
M  V30 7 H 71.637900 55.025600 40.322500 0
M  V30 8 H 72.560600 56.528200 40.272100 0
M  V30 9 H 73.040900 55.165800 39.287400 0
M  V30 10 H 72.099000 55.253600 43.028300 0
M  V30 11 H 73.754500 55.419800 43.569500 0
M  V30 12 H 73.020400 56.694800 42.625800 0
M  V30 13 H 75.008800 55.997700 40.139800 0
M  V30 14 H 75.671500 54.557100 40.873200 0
M  V30 15 R 73.460800 53.380500 41.613300 0
M  V30 END ATOM
M  V30 BEGIN BOND
M  V30 1 1 2 1
M  V30 2 1 3 1
M  V30 3 1 4 1
M  V30 4 1 5 4
M  V30 5 3 6 5
M  V30 6 1 7 2
M  V30 7 1 8 2
M  V30 8 1 9 2
M  V30 9 1 10 3
M  V30 10 1 11 3
M  V30 11 1 12 3
M  V30 12 1 13 4
M  V30 13 1 14 4
M  V30 14 1 15 1
M  V30 END BOND
M  V30 END CTAB
M  END
$$$$
R-group 33 (11312-1)
     RDKit          3D

  0  0  0  0  0  0  0  0  0  0999 V3000
M  V30 BEGIN CTAB
M  V30 COUNTS 17 17 0 0 1
M  V30 BEGIN ATOM
M  V30 1 C 73.935100 54.577300 41.704500 0
M  V30 2 C 73.392500 55.481000 40.785900 0
M  V30 3 C 73.688300 56.813300 40.950800 0
M  V30 4 C 72.943000 57.903100 40.243000 0
M  V30 5 N 74.560800 57.242200 41.855500 0
M  V30 6 C 75.169900 56.414100 42.696500 0
M  V30 7 C 76.156900 57.049500 43.645000 0
M  V30 8 C 74.871600 55.052600 42.656300 0
M  V30 9 H 72.720500 55.171500 40.004700 0
M  V30 10 H 71.957600 57.521400 39.982600 0
M  V30 11 H 72.819100 58.757600 40.920300 0
M  V30 12 H 73.485800 58.219400 39.350500 0
M  V30 13 H 76.703000 56.272700 44.152000 0
M  V30 14 H 76.855000 57.635000 43.067300 0
M  V30 15 H 75.688200 57.692400 44.411100 0
M  V30 16 H 75.393900 54.411200 43.322400 0
M  V30 17 R 73.552000 53.102200 41.620600 0
M  V30 END ATOM
M  V30 BEGIN BOND
M  V30 1 2 2 1
M  V30 2 1 3 2
M  V30 3 1 4 3
M  V30 4 2 5 3
M  V30 5 1 6 5
M  V30 6 1 7 6
M  V30 7 1 8 1
M  V30 8 2 8 6
M  V30 9 1 9 2
M  V30 10 1 10 4
M  V30 11 1 11 4
M  V30 12 1 12 4
M  V30 13 1 13 7
M  V30 14 1 14 7
M  V30 15 1 15 7
M  V30 16 1 16 8
M  V30 17 1 17 1
M  V30 END BOND
M  V30 END CTAB
M  END
$$$$
R-group 34 (12477-1)
     RDKit          3D

  0  0  0  0  0  0  0  0  0  0999 V3000
M  V30 BEGIN CTAB
M  V30 COUNTS 15 15 0 0 1
M  V30 BEGIN ATOM
M  V30 1 S 74.733700 55.690900 42.142200 0
M  V30 2 O 75.592600 55.810500 43.324700 0
M  V30 3 O 75.294000 56.024600 40.826400 0
M  V30 4 C 73.248600 56.744800 42.397100 0
M  V30 5 C 73.432700 58.058000 43.149200 0
M  V30 6 C 72.542900 58.743900 42.092700 0
M  V30 7 C 72.872200 57.580900 41.153800 0
M  V30 8 H 72.472300 56.189300 42.924700 0
M  V30 9 H 72.960700 58.052800 44.125000 0
M  V30 10 H 74.471200 58.375900 43.211600 0
M  V30 11 H 71.497800 58.845300 42.388500 0
M  V30 12 H 72.872300 59.702300 41.724800 0
M  V30 13 H 73.711100 57.838800 40.514900 0
M  V30 14 H 72.072200 57.199600 40.524700 0
M  V30 15 R 73.940400 53.984800 42.075200 0
M  V30 END ATOM
M  V30 BEGIN BOND
M  V30 1 2 2 1
M  V30 2 2 3 1
M  V30 3 1 4 1
M  V30 4 1 5 4
M  V30 5 1 6 5
M  V30 6 1 7 4
M  V30 7 1 7 6
M  V30 8 1 8 4
M  V30 9 1 9 5
M  V30 10 1 10 5
M  V30 11 1 11 6
M  V30 12 1 12 6
M  V30 13 1 13 7
M  V30 14 1 14 7
M  V30 15 1 15 1
M  V30 END BOND
M  V30 END CTAB
M  END
$$$$
R-group 35 (11952-1)
     RDKit          3D

  0  0  0  0  0  0  0  0  0  0999 V3000
M  V30 BEGIN CTAB
M  V30 COUNTS 22 23 0 0 1
M  V30 BEGIN ATOM
M  V30 1 C 73.754500 54.539200 41.691100 0 CFG=1
M  V30 2 C 73.672200 55.285100 43.007100 0
M  V30 3 C 74.624000 56.441100 42.933900 0 CFG=2
M  V30 4 C 73.831500 57.723300 42.851700 0
M  V30 5 C 73.611500 57.854200 41.350400 0
M  V30 6 C 74.938100 57.310400 40.765900 0
M  V30 7 C 75.444200 56.250400 41.682100 0 CFG=2
M  V30 8 C 75.174500 54.859300 41.206600 0
M  V30 9 H 73.038000 54.985600 41.001600 0
M  V30 10 H 72.649700 55.562500 43.269000 0
M  V30 11 H 74.072600 54.716800 43.820600 0
M  V30 12 H 75.351000 56.444000 43.724800 0
M  V30 13 H 72.902200 57.724700 43.422800 0
M  V30 14 H 74.472000 58.457900 43.312000 0
M  V30 15 H 73.275000 58.849700 41.056400 0
M  V30 16 H 72.798800 57.202600 41.040400 0
M  V30 17 H 75.713500 58.057800 40.924500 0
M  V30 18 H 74.902000 57.050200 39.707700 0
M  V30 19 H 76.514500 56.382100 41.862000 0
M  V30 20 H 75.902800 54.250700 41.724800 0
M  V30 21 H 75.350800 54.774000 40.138400 0
M  V30 22 R 73.427800 53.053800 41.867700 0
M  V30 END ATOM
M  V30 BEGIN BOND
M  V30 1 1 2 1
M  V30 2 1 3 2
M  V30 3 1 4 3
M  V30 4 1 5 4
M  V30 5 1 6 5
M  V30 6 1 7 3
M  V30 7 1 7 6
M  V30 8 1 8 1
M  V30 9 1 8 7
M  V30 10 1 1 9 CFG=3
M  V30 11 1 10 2
M  V30 12 1 11 2
M  V30 13 1 3 12 CFG=1
M  V30 14 1 13 4
M  V30 15 1 14 4
M  V30 16 1 15 5
M  V30 17 1 16 5
M  V30 18 1 17 6
M  V30 19 1 18 6
M  V30 20 1 7 19 CFG=1
M  V30 21 1 20 8
M  V30 22 1 21 8
M  V30 23 1 22 1
M  V30 END BOND
M  V30 END CTAB
M  END
$$$$
R-group 36 (39657-1)
     RDKit          3D

  0  0  0  0  0  0  0  0  0  0999 V3000
M  V30 BEGIN CTAB
M  V30 COUNTS 17 17 0 0 1
M  V30 BEGIN ATOM
M  V30 1 C 73.765600 54.803300 42.976700 0
M  V30 2 C 74.380400 55.701600 42.026100 0
M  V30 3 N 75.603800 56.205200 42.056100 0
M  V30 4 C 75.673400 56.858300 40.850700 0
M  V30 5 C 76.789400 57.772700 40.491500 0
M  V30 6 C 74.488800 56.717600 40.187800 0
M  V30 7 C 73.934600 57.249500 38.936400 0
M  V30 8 O 73.670500 55.979700 40.924000 0
M  V30 9 H 72.831500 55.258300 43.324400 0
M  V30 10 H 74.403500 54.848900 43.859400 0
M  V30 11 H 77.677100 57.273400 40.125200 0
M  V30 12 H 76.477000 58.460300 39.713700 0
M  V30 13 H 77.036200 58.396400 41.330900 0
M  V30 14 H 73.997500 58.336100 38.927600 0
M  V30 15 H 74.495200 56.857700 38.099800 0
M  V30 16 H 72.890100 56.966300 38.810200 0
M  V30 17 R 73.575100 53.355700 42.448500 0
M  V30 END ATOM
M  V30 BEGIN BOND
M  V30 1 1 2 1
M  V30 2 2 3 2
M  V30 3 1 4 3
M  V30 4 1 5 4
M  V30 5 2 6 4
M  V30 6 1 7 6
M  V30 7 1 8 2
M  V30 8 1 8 6
M  V30 9 1 9 1
M  V30 10 1 10 1
M  V30 11 1 11 5
M  V30 12 1 12 5
M  V30 13 1 13 5
M  V30 14 1 14 7
M  V30 15 1 15 7
M  V30 16 1 16 7
M  V30 17 1 17 1
M  V30 END BOND
M  V30 END CTAB
M  END
$$$$
R-group 37 (22550-1)
     RDKit          3D

  0  0  0  0  0  0  0  0  0  0999 V3000
M  V30 BEGIN CTAB
M  V30 COUNTS 20 19 0 0 1
M  V30 BEGIN ATOM
M  V30 1 C 73.682800 55.283600 42.171800 0 CFG=1
M  V30 2 C 72.803500 56.051900 43.181100 0
M  V30 3 C 75.154200 55.787400 42.318800 0
M  V30 4 C 75.868500 55.339100 43.628900 0
M  V30 5 C 75.192900 57.299900 42.399700 0
M  V30 6 C 75.902300 55.540100 41.006300 0
M  V30 7 H 73.337300 55.697000 41.224500 0
M  V30 8 H 73.266900 56.061700 44.138400 0
M  V30 9 H 72.672600 57.094100 42.891000 0
M  V30 10 H 71.802300 55.658700 43.330400 0
M  V30 11 H 76.868100 55.737000 43.727200 0
M  V30 12 H 76.069800 54.293800 43.713500 0
M  V30 13 H 75.326200 55.585100 44.528500 0
M  V30 14 H 74.627700 57.756700 41.587500 0
M  V30 15 H 74.803500 57.693300 43.336600 0
M  V30 16 H 76.222500 57.657700 42.339000 0
M  V30 17 H 75.373300 55.979700 40.159700 0
M  V30 18 H 76.872100 56.011300 41.013200 0
M  V30 19 H 76.028100 54.497700 40.780500 0
M  V30 20 R 73.387400 53.725200 42.041000 0
M  V30 END ATOM
M  V30 BEGIN BOND
M  V30 1 1 2 1
M  V30 2 1 3 1
M  V30 3 1 4 3
M  V30 4 1 5 3
M  V30 5 1 6 3
M  V30 6 1 1 7 CFG=3
M  V30 7 1 8 2
M  V30 8 1 9 2
M  V30 9 1 10 2
M  V30 10 1 11 4
M  V30 11 1 12 4
M  V30 12 1 13 4
M  V30 13 1 14 5
M  V30 14 1 15 5
M  V30 15 1 16 5
M  V30 16 1 17 6
M  V30 17 1 18 6
M  V30 18 1 19 6
M  V30 19 1 20 1
M  V30 END BOND
M  V30 END CTAB
M  END
$$$$
R-group 38 (5096-1)
     RDKit          3D

  0  0  0  0  0  0  0  0  0  0999 V3000
M  V30 BEGIN CTAB
M  V30 COUNTS 14 14 0 0 1
M  V30 BEGIN ATOM
M  V30 1 C 74.926400 55.037100 42.207300 0
M  V30 2 C 74.248600 56.254400 41.709600 0
M  V30 3 C 73.672100 57.286900 42.485200 0
M  V30 4 C 73.053300 58.057500 41.546600 0
M  V30 5 C 72.145500 59.225700 41.607800 0
M  V30 6 O 73.272300 57.559100 40.303600 0
M  V30 7 N 74.085700 56.435500 40.412500 0
M  V30 8 H 75.281400 55.236000 43.219200 0
M  V30 9 H 75.826200 54.867500 41.621200 0
M  V30 10 H 73.639400 57.400300 43.557500 0
M  V30 11 H 72.472200 59.999000 42.294000 0
M  V30 12 H 72.053800 59.661200 40.614700 0
M  V30 13 H 71.174600 58.884600 41.939800 0
M  V30 14 R 74.023200 53.777200 42.206100 0
M  V30 END ATOM
M  V30 BEGIN BOND
M  V30 1 1 2 1
M  V30 2 1 3 2
M  V30 3 2 4 3
M  V30 4 1 5 4
M  V30 5 1 6 4
M  V30 6 2 7 2
M  V30 7 1 7 6
M  V30 8 1 8 1
M  V30 9 1 9 1
M  V30 10 1 10 3
M  V30 11 1 11 5
M  V30 12 1 12 5
M  V30 13 1 13 5
M  V30 14 1 14 1
M  V30 END BOND
M  V30 END CTAB
M  END
$$$$
R-group 39 (5090-2)
     RDKit          3D

  0  0  0  0  0  0  0  0  0  0999 V3000
M  V30 BEGIN CTAB
M  V30 COUNTS 14 13 0 0 1
M  V30 BEGIN ATOM
M  V30 1 C 73.960800 55.101700 41.940000 0 CFG=1
M  V30 2 F 75.272200 55.280800 42.058300 0
M  V30 3 C 73.529300 56.010700 40.759300 0
M  V30 4 C 73.893200 57.491000 40.934900 0
M  V30 5 C 73.115200 58.214800 42.029000 0
M  V30 6 F 73.272200 57.658000 43.222700 0
M  V30 7 H 73.538300 55.436100 42.884500 0
M  V30 8 H 74.040700 55.688800 39.854300 0
M  V30 9 H 72.472300 55.911300 40.524700 0
M  V30 10 H 74.964300 57.596100 41.113400 0
M  V30 11 H 73.672300 57.996000 39.992100 0
M  V30 12 H 73.385700 59.258000 42.121900 0
M  V30 13 H 72.072200 58.205500 41.790300 0
M  V30 14 R 73.632400 53.587200 41.829800 0
M  V30 END ATOM
M  V30 BEGIN BOND
M  V30 1 1 2 1
M  V30 2 1 3 1
M  V30 3 1 4 3
M  V30 4 1 5 4
M  V30 5 1 6 5
M  V30 6 1 1 7 CFG=1
M  V30 7 1 8 3
M  V30 8 1 9 3
M  V30 9 1 10 4
M  V30 10 1 11 4
M  V30 11 1 12 5
M  V30 12 1 13 5
M  V30 13 1 14 1
M  V30 END BOND
M  V30 END CTAB
M  END
$$$$
R-group 40 (27181-2)
     RDKit          3D

  0  0  0  0  0  0  0  0  0  0999 V3000
M  V30 BEGIN CTAB
M  V30 COUNTS 24 23 0 0 1
M  V30 BEGIN ATOM
M  V30 1 C 72.456300 54.057500 41.893100 0
M  V30 2 C 73.274900 55.263800 41.438800 0 CFG=1
M  V30 3 O 72.883400 55.692400 40.124300 0
M  V30 4 C 73.390600 56.403900 42.483500 0
M  V30 5 C 74.071200 57.679500 41.963900 0
M  V30 6 C 75.504300 57.409100 41.495700 0
M  V30 7 C 75.565900 56.788200 40.121200 0
M  V30 8 C 76.305000 56.642500 42.533000 0
M  V30 9 H 72.247100 54.115400 42.943700 0
M  V30 10 H 71.470100 54.076200 41.427300 0
M  V30 11 H 74.281100 54.870200 41.342400 0
M  V30 12 H 73.901100 56.016900 43.366800 0
M  V30 13 H 72.472300 56.704000 42.925800 0
M  V30 14 H 74.059900 58.451300 42.736600 0
M  V30 15 H 73.483400 58.104100 41.152600 0
M  V30 16 H 76.072700 58.321000 41.296500 0
M  V30 17 H 75.658700 55.703800 40.111300 0
M  V30 18 H 76.470600 57.156800 39.731300 0
M  V30 19 H 74.798900 57.143600 39.434100 0
M  V30 20 H 75.906400 55.661500 42.782200 0
M  V30 21 H 77.252000 56.455000 42.089400 0
M  V30 22 H 76.448900 57.218400 43.447800 0
M  V30 23 H 73.505000 56.334900 39.828900 0
M  V30 24 R 73.154100 52.720300 41.567700 0
M  V30 END ATOM
M  V30 BEGIN BOND
M  V30 1 1 2 1
M  V30 2 1 3 2
M  V30 3 1 4 2
M  V30 4 1 5 4
M  V30 5 1 6 5
M  V30 6 1 7 6
M  V30 7 1 8 6
M  V30 8 1 9 1
M  V30 9 1 10 1
M  V30 10 1 2 11 CFG=3
M  V30 11 1 12 4
M  V30 12 1 13 4
M  V30 13 1 14 5
M  V30 14 1 15 5
M  V30 15 1 16 6
M  V30 16 1 17 7
M  V30 17 1 18 7
M  V30 18 1 19 7
M  V30 19 1 20 8
M  V30 20 1 21 8
M  V30 21 1 22 8
M  V30 22 1 23 3
M  V30 23 1 24 1
M  V30 END BOND
M  V30 END CTAB
M  END
$$$$
R-group 41 (41329-3)
     RDKit          3D

  0  0  0  0  0  0  0  0  0  0999 V3000
M  V30 BEGIN CTAB
M  V30 COUNTS 24 24 0 0 1
M  V30 BEGIN ATOM
M  V30 1 C 73.557200 54.471300 41.781600 0 CFG=1
M  V30 2 C 74.992000 55.022500 41.870000 0
M  V30 3 C 74.782700 56.464000 41.458000 0 CFG=2
M  V30 4 O 76.023000 56.878100 40.951100 0
M  V30 5 C 74.453900 57.369300 42.684100 0
M  V30 6 O 73.268600 57.041800 43.326500 0
M  V30 7 C 73.672100 56.369700 40.352500 0
M  V30 8 C 74.153800 56.121700 38.945600 0
M  V30 9 C 72.673900 57.541400 40.239000 0
M  V30 10 O 73.055000 55.094500 40.583500 0
M  V30 11 H 72.972900 54.767800 42.646700 0
M  V30 12 H 75.432700 54.953500 42.871200 0
M  V30 13 H 75.675700 54.495400 41.173500 0
M  V30 14 H 75.299800 57.411500 43.404200 0
M  V30 15 H 74.223400 58.365900 42.292500 0
M  V30 16 H 74.557900 57.043500 38.531100 0
M  V30 17 H 74.872200 55.378700 39.037100 0
M  V30 18 H 73.309300 55.736900 38.355800 0
M  V30 19 H 73.254500 58.390800 39.836000 0
M  V30 20 H 71.841900 57.194100 39.582500 0
M  V30 21 H 72.231800 57.826600 41.188900 0
M  V30 22 H 76.705600 56.705600 41.580800 0
M  V30 23 H 73.320300 56.175300 43.687400 0
M  V30 24 R 73.428500 52.927600 41.683800 0
M  V30 END ATOM
M  V30 BEGIN BOND
M  V30 1 1 2 1
M  V30 2 1 3 2
M  V30 3 1 3 4 CFG=3
M  V30 4 1 5 3
M  V30 5 1 6 5
M  V30 6 1 7 3
M  V30 7 1 8 7
M  V30 8 1 9 7
M  V30 9 1 10 1
M  V30 10 1 10 7
M  V30 11 1 1 11 CFG=1
M  V30 12 1 12 2
M  V30 13 1 13 2
M  V30 14 1 14 5
M  V30 15 1 15 5
M  V30 16 1 16 8
M  V30 17 1 17 8
M  V30 18 1 18 8
M  V30 19 1 19 9
M  V30 20 1 20 9
M  V30 21 1 21 9
M  V30 22 1 22 4
M  V30 23 1 23 6
M  V30 24 1 24 1
M  V30 END BOND
M  V30 END CTAB
M  END
$$$$
R-group 42 (2639-1)
     RDKit          3D

  0  0  0  0  0  0  0  0  0  0999 V3000
M  V30 BEGIN CTAB
M  V30 COUNTS 14 13 0 0 1
M  V30 BEGIN ATOM
M  V30 1 C 74.836200 55.178000 42.192700 0
M  V30 2 N 74.070100 56.340500 41.796900 0
M  V30 3 C 74.257700 56.656900 40.390300 0
M  V30 4 C 73.008500 57.350900 39.848300 0
M  V30 5 C 71.913400 56.407400 39.552800 0
M  V30 6 N 71.057200 55.658300 39.324700 0
M  V30 7 H 75.771100 55.121700 41.634500 0
M  V30 8 H 75.124300 55.355500 43.229500 0
M  V30 9 H 73.099100 56.176800 42.021800 0
M  V30 10 H 74.454700 55.776200 39.784900 0
M  V30 11 H 75.142500 57.283500 40.295000 0
M  V30 12 H 73.272300 57.857800 38.924800 0
M  V30 13 H 72.646300 58.114700 40.537200 0
M  V30 14 R 74.029000 53.851800 42.123700 0
M  V30 END ATOM
M  V30 BEGIN BOND
M  V30 1 1 2 1
M  V30 2 1 3 2
M  V30 3 1 4 3
M  V30 4 1 5 4
M  V30 5 3 6 5
M  V30 6 1 7 1
M  V30 7 1 8 1
M  V30 8 1 9 2
M  V30 9 1 10 3
M  V30 10 1 11 3
M  V30 11 1 12 4
M  V30 12 1 13 4
M  V30 13 1 14 1
M  V30 END BOND
M  V30 END CTAB
M  END
$$$$
R-group 43 (1422-1)
     RDKit          3D

  0  0  0  0  0  0  0  0  0  0999 V3000
M  V30 BEGIN CTAB
M  V30 COUNTS 18 18 0 0 1
M  V30 BEGIN ATOM
M  V30 1 C 73.675200 54.578900 41.972000 0
M  V30 2 C 75.159600 55.021400 42.029500 0
M  V30 3 C 75.248500 56.507200 42.300600 0
M  V30 4 C 74.434400 57.205300 41.232200 0
M  V30 5 F 74.246100 58.458600 41.724800 0
M  V30 6 F 75.103500 57.267000 40.098700 0
M  V30 7 C 73.011700 56.795200 41.044900 0
M  V30 8 C 72.935100 55.280300 40.817300 0
M  V30 9 H 73.235400 54.918000 42.916500 0
M  V30 10 H 75.665000 54.523600 42.858600 0
M  V30 11 H 75.672200 54.776500 41.075200 0
M  V30 12 H 74.890100 56.728100 43.303500 0
M  V30 13 H 76.285700 56.855600 42.285300 0
M  V30 14 H 72.476400 57.136600 41.950800 0
M  V30 15 H 72.564600 57.339800 40.226400 0
M  V30 16 H 73.479100 55.097700 39.906500 0
M  V30 17 H 71.960900 54.822900 40.672900 0
M  V30 18 R 73.472800 53.059500 41.895800 0
M  V30 END ATOM
M  V30 BEGIN BOND
M  V30 1 1 2 1
M  V30 2 1 3 2
M  V30 3 1 4 3
M  V30 4 1 5 4
M  V30 5 1 6 4
M  V30 6 1 7 4
M  V30 7 1 8 1
M  V30 8 1 8 7
M  V30 9 1 9 1
M  V30 10 1 10 2
M  V30 11 1 11 2
M  V30 12 1 12 3
M  V30 13 1 13 3
M  V30 14 1 14 7
M  V30 15 1 15 7
M  V30 16 1 16 8
M  V30 17 1 17 8
M  V30 18 1 18 1
M  V30 END BOND
M  V30 END CTAB
M  END
$$$$
R-group 44 (1117-1)
     RDKit          3D

  0  0  0  0  0  0  0  0  0  0999 V3000
M  V30 BEGIN CTAB
M  V30 COUNTS 8 7 0 0 1
M  V30 BEGIN ATOM
M  V30 1 C 74.415700 55.377800 42.727700 0
M  V30 2 C 73.393300 56.522600 42.702700 0
M  V30 3 F 73.904200 57.595300 43.306600 0
M  V30 4 F 73.078900 56.859400 41.452400 0
M  V30 5 H 74.807800 55.353300 43.743400 0
M  V30 6 H 75.271300 55.631700 42.102400 0
M  V30 7 H 72.485900 56.255400 43.249100 0
M  V30 8 R 73.865900 53.969100 42.359900 0
M  V30 END ATOM
M  V30 BEGIN BOND
M  V30 1 1 2 1
M  V30 2 1 3 2
M  V30 3 1 4 2
M  V30 4 1 5 1
M  V30 5 1 6 1
M  V30 6 1 7 2
M  V30 7 1 8 1
M  V30 END BOND
M  V30 END CTAB
M  END
$$$$
R-group 45 (10317-1)
     RDKit          3D

  0  0  0  0  0  0  0  0  0  0999 V3000
M  V30 BEGIN CTAB
M  V30 COUNTS 15 14 0 0 1
M  V30 BEGIN ATOM
M  V30 1 C 72.181000 58.952500 41.502900 0
M  V30 2 C 72.925800 57.953000 40.612800 0
M  V30 3 C 74.127800 57.302000 41.309300 0
M  V30 4 O 73.672200 56.475400 42.365500 0
M  V30 5 C 74.514800 55.402000 42.736100 0
M  V30 6 H 71.444200 59.516900 40.930500 0
M  V30 7 H 71.676000 58.459800 42.325400 0
M  V30 8 H 72.871800 59.657900 41.955000 0
M  V30 9 H 73.273000 58.473700 39.722900 0
M  V30 10 H 72.244800 57.181600 40.254200 0
M  V30 11 H 74.791700 58.052400 41.722600 0
M  V30 12 H 74.705400 56.755600 40.569700 0
M  V30 13 H 74.471600 55.356900 43.823400 0
M  V30 14 H 75.558700 55.605800 42.483100 0
M  V30 15 R 74.030300 54.055100 42.136400 0
M  V30 END ATOM
M  V30 BEGIN BOND
M  V30 1 1 2 1
M  V30 2 1 3 2
M  V30 3 1 4 3
M  V30 4 1 5 4
M  V30 5 1 6 1
M  V30 6 1 7 1
M  V30 7 1 8 1
M  V30 8 1 9 2
M  V30 9 1 10 2
M  V30 10 1 11 3
M  V30 11 1 12 3
M  V30 12 1 13 5
M  V30 13 1 14 5
M  V30 14 1 15 5
M  V30 END BOND
M  V30 END CTAB
M  END
$$$$
R-group 46 (2313-2)
     RDKit          3D

  0  0  0  0  0  0  0  0  0  0999 V3000
M  V30 BEGIN CTAB
M  V30 COUNTS 17 17 0 0 1
M  V30 BEGIN ATOM
M  V30 1 C 73.541800 54.704700 42.234900 0
M  V30 2 C 74.478400 55.832500 41.728700 0 CFG=1
M  V30 3 C 74.101000 56.564000 40.407600 0
M  V30 4 O 72.872800 57.258000 40.523900 0
M  V30 5 C 72.890300 58.157000 41.621200 0
M  V30 6 C 73.272300 57.473200 42.938200 0
M  V30 7 O 74.529100 56.830800 42.741200 0
M  V30 8 H 72.510900 54.857800 41.995100 0
M  V30 9 H 73.608800 54.718200 43.316600 0
M  V30 10 H 75.489600 55.430800 41.642200 0
M  V30 11 H 74.896100 57.258100 40.136200 0
M  V30 12 H 74.001500 55.922100 39.546100 0
M  V30 13 H 73.672100 58.857900 41.441800 0
M  V30 14 H 71.951000 58.711900 41.705900 0
M  V30 15 H 73.373300 58.215900 43.722900 0
M  V30 16 H 72.504700 56.790300 43.288300 0
M  V30 17 R 73.719500 53.297100 41.722600 0
M  V30 END ATOM
M  V30 BEGIN BOND
M  V30 1 1 2 1
M  V30 2 1 3 2
M  V30 3 1 4 3
M  V30 4 1 5 4
M  V30 5 1 6 5
M  V30 6 1 7 2
M  V30 7 1 7 6
M  V30 8 1 8 1
M  V30 9 1 9 1
M  V30 10 1 2 10 CFG=3
M  V30 11 1 11 3
M  V30 12 1 12 3
M  V30 13 1 13 5
M  V30 14 1 14 5
M  V30 15 1 15 6
M  V30 16 1 16 6
M  V30 17 1 17 1
M  V30 END BOND
M  V30 END CTAB
M  END
$$$$
R-group 47 (27272-2)
     RDKit          3D

  0  0  0  0  0  0  0  0  0  0999 V3000
M  V30 BEGIN CTAB
M  V30 COUNTS 15 15 0 0 1
M  V30 BEGIN ATOM
M  V30 1 C 73.255000 54.302300 42.384200 0 CFG=2
M  V30 2 C 71.782900 54.457800 42.720000 0
M  V30 3 C 73.795700 55.309700 41.418100 0
M  V30 4 C 74.925600 56.049600 41.634300 0
M  V30 5 C 75.272000 56.857600 40.525900 0
M  V30 6 C 74.373600 56.770400 39.501300 0
M  V30 7 S 73.123700 55.632500 39.822900 0
M  V30 8 H 73.748300 54.520600 43.324700 0
M  V30 9 H 71.672500 55.366100 43.324900 0
M  V30 10 H 71.197300 54.454100 41.801100 0
M  V30 11 H 71.402300 53.652300 43.344900 0
M  V30 12 H 75.530400 56.016100 42.527200 0
M  V30 13 H 76.156000 57.479200 40.526200 0
M  V30 14 H 74.398500 57.258000 38.534000 0
M  V30 15 R 73.516100 52.840800 42.013800 0
M  V30 END ATOM
M  V30 BEGIN BOND
M  V30 1 1 2 1
M  V30 2 1 3 1
M  V30 3 2 4 3
M  V30 4 1 5 4
M  V30 5 2 6 5
M  V30 6 1 7 3
M  V30 7 1 7 6
M  V30 8 1 1 8 CFG=1
M  V30 9 1 9 2
M  V30 10 1 10 2
M  V30 11 1 11 2
M  V30 12 1 12 4
M  V30 13 1 13 5
M  V30 14 1 14 6
M  V30 15 1 15 1
M  V30 END BOND
M  V30 END CTAB
M  END
$$$$
R-group 48 (34072-3)
     RDKit          3D

  0  0  0  0  0  0  0  0  0  0999 V3000
M  V30 BEGIN CTAB
M  V30 COUNTS 19 19 0 0 1
M  V30 BEGIN ATOM
M  V30 1 C 70.110300 53.281900 37.129300 0
M  V30 2 C 70.153600 53.872000 38.535700 0
M  V30 3 O 69.229100 53.664700 39.320700 0
M  V30 4 N 71.229500 54.615300 38.842700 0
M  V30 5 C 71.437900 55.288400 40.103500 0
M  V30 6 C 72.849000 55.784400 40.523800 0 CFG=2
M  V30 7 C 74.097400 55.430600 39.779000 0
M  V30 8 C 73.895500 54.889100 41.197500 0 CFG=2
M  V30 9 H 70.998700 53.545700 36.554300 0
M  V30 10 H 70.037300 52.194800 37.184300 0
M  V30 11 H 69.242100 53.665100 36.595700 0
M  V30 12 H 71.029300 54.681200 40.914300 0
M  V30 13 H 70.793600 56.162800 40.048800 0
M  V30 14 H 72.844600 56.804100 40.900700 0
M  V30 15 H 74.842300 56.213700 39.649600 0
M  V30 16 H 73.883400 54.860500 38.882500 0
M  V30 17 H 74.472700 55.405000 41.971500 0
M  V30 18 H 71.955700 54.705600 38.148600 0
M  V30 19 R 73.644700 53.423100 41.583800 0
M  V30 END ATOM
M  V30 BEGIN BOND
M  V30 1 1 2 1
M  V30 2 2 3 2
M  V30 3 1 4 2
M  V30 4 1 5 4
M  V30 5 1 6 5
M  V30 6 1 7 6
M  V30 7 1 8 6
M  V30 8 1 8 7
M  V30 9 1 9 1
M  V30 10 1 10 1
M  V30 11 1 11 1
M  V30 12 1 12 5
M  V30 13 1 13 5
M  V30 14 1 6 14 CFG=1
M  V30 15 1 15 7
M  V30 16 1 16 7
M  V30 17 1 8 17 CFG=1
M  V30 18 1 18 4
M  V30 19 1 19 8
M  V30 END BOND
M  V30 END CTAB
M  END
$$$$
R-group 49 (20353-3)
     RDKit          3D

  0  0  0  0  0  0  0  0  0  0999 V3000
M  V30 BEGIN CTAB
M  V30 COUNTS 12 12 0 0 1
M  V30 BEGIN ATOM
M  V30 1 C 73.606500 54.831400 42.212700 0 CFG=1
M  V30 2 C 74.137800 55.544400 43.430000 0
M  V30 3 C 74.915800 55.544700 42.132500 0 CFG=2
M  V30 4 C 74.965500 56.770900 41.275500 0
M  V30 5 F 76.200200 57.258100 41.324400 0
M  V30 6 F 74.666000 56.458100 40.018300 0
M  V30 7 F 74.071900 57.657800 41.725000 0
M  V30 8 H 72.872200 55.365800 41.637500 0
M  V30 9 H 73.583200 56.431300 43.724400 0
M  V30 10 H 74.531600 54.974800 44.262000 0
M  V30 11 H 75.786700 54.905800 42.050000 0
M  V30 12 R 73.477400 53.330800 42.026100 0
M  V30 END ATOM
M  V30 BEGIN BOND
M  V30 1 1 2 1
M  V30 2 1 3 1
M  V30 3 1 3 2
M  V30 4 1 4 3
M  V30 5 1 5 4
M  V30 6 1 6 4
M  V30 7 1 7 4
M  V30 8 1 1 8 CFG=3
M  V30 9 1 9 2
M  V30 10 1 10 2
M  V30 11 1 3 11 CFG=1
M  V30 12 1 12 1
M  V30 END BOND
M  V30 END CTAB
M  END
$$$$
R-group 50 (15595-2)
     RDKit          3D

  0  0  0  0  0  0  0  0  0  0999 V3000
M  V30 BEGIN CTAB
M  V30 COUNTS 15 15 0 0 1
M  V30 BEGIN ATOM
M  V30 1 N 73.970600 54.970900 41.959700 0
M  V30 2 C 75.349800 55.336900 42.271500 0
M  V30 3 C 75.340500 56.851500 42.188800 0
M  V30 4 C 74.220400 57.147900 41.204400 0 CFG=2
M  V30 5 C 73.236000 58.079300 41.726800 0
M  V30 6 N 72.472100 58.857900 42.124600 0
M  V30 7 C 73.630500 55.815600 40.815000 0
M  V30 8 H 76.022900 54.928700 41.520800 0
M  V30 9 H 75.671600 55.005500 43.258800 0
M  V30 10 H 76.300100 57.242900 41.857500 0
M  V30 11 H 75.125100 57.284000 43.168600 0
M  V30 12 H 74.611100 57.651800 40.319200 0
M  V30 13 H 72.576900 55.863500 40.535500 0
M  V30 14 H 74.157500 55.498500 39.919100 0
M  V30 15 R 73.643200 53.535800 41.867500 0
M  V30 END ATOM
M  V30 BEGIN BOND
M  V30 1 1 2 1
M  V30 2 1 3 2
M  V30 3 1 4 3
M  V30 4 1 5 4
M  V30 5 3 6 5
M  V30 6 1 7 1
M  V30 7 1 7 4
M  V30 8 1 8 2
M  V30 9 1 9 2
M  V30 10 1 10 3
M  V30 11 1 11 3
M  V30 12 1 4 12 CFG=3
M  V30 13 1 13 7
M  V30 14 1 14 7
M  V30 15 1 15 1
M  V30 END BOND
M  V30 END CTAB
M  END
$$$$
R-group 51 (263-1)
     RDKit          3D

  0  0  0  0  0  0  0  0  0  0999 V3000
M  V30 BEGIN CTAB
M  V30 COUNTS 7 6 0 0 1
M  V30 BEGIN ATOM
M  V30 1 S 74.235700 55.635800 41.614800 0
M  V30 2 N 73.466200 56.182200 40.174800 0
M  V30 3 O 73.672500 56.436000 42.710700 0
M  V30 4 O 75.672200 55.692000 41.328400 0
M  V30 5 H 72.795300 56.925100 40.365000 0
M  V30 6 H 74.133400 56.420000 39.442000 0
M  V30 7 R 73.684300 53.848600 41.828300 0
M  V30 END ATOM
M  V30 BEGIN BOND
M  V30 1 1 2 1
M  V30 2 2 3 1
M  V30 3 2 4 1
M  V30 4 1 5 2
M  V30 5 1 6 2
M  V30 6 1 7 1
M  V30 END BOND
M  V30 END CTAB
M  END
$$$$
R-group 52 (43036-1)
     RDKit          3D

  0  0  0  0  0  0  0  0  0  0999 V3000
M  V30 BEGIN CTAB
M  V30 COUNTS 14 15 0 0 1
M  V30 BEGIN ATOM
M  V30 1 C 73.992700 55.217800 42.601100 0 CFG=2
M  V30 2 C 75.413500 55.702300 42.763900 0
M  V30 3 O 75.535100 56.947300 42.124200 0
M  V30 4 C 74.249900 57.523600 42.013900 0
M  V30 5 C 73.267200 56.407700 42.026400 0 CFG=2
M  V30 6 C 72.811900 55.849700 43.320100 0
M  V30 7 H 76.049900 55.026500 42.158700 0
M  V30 8 H 75.715000 55.707300 43.824700 0
M  V30 9 H 74.107300 58.025100 41.062500 0
M  V30 10 H 74.070300 58.229900 42.832600 0
M  V30 11 H 72.872100 56.164500 41.059900 0
M  V30 12 H 72.947000 56.490900 44.188500 0
M  V30 13 H 71.921400 55.258400 43.324700 0
M  V30 14 R 73.850400 53.862700 41.867800 0
M  V30 END ATOM
M  V30 BEGIN BOND
M  V30 1 1 2 1
M  V30 2 1 3 2
M  V30 3 1 4 3
M  V30 4 1 5 1
M  V30 5 1 5 4
M  V30 6 1 6 1
M  V30 7 1 6 5
M  V30 8 1 7 2
M  V30 9 1 8 2
M  V30 10 1 9 4
M  V30 11 1 10 4
M  V30 12 1 5 11 CFG=3
M  V30 13 1 12 6
M  V30 14 1 13 6
M  V30 15 1 1 14 CFG=3
M  V30 END BOND
M  V30 END CTAB
M  END
$$$$
R-group 53 (12634-1)
     RDKit          3D

  0  0  0  0  0  0  0  0  0  0999 V3000
M  V30 BEGIN CTAB
M  V30 COUNTS 12 11 0 0 1
M  V30 BEGIN ATOM
M  V30 1 C 73.872400 57.778500 42.989000 0
M  V30 2 N 73.672200 56.353000 42.812100 0
M  V30 3 S 74.245000 55.643500 41.538500 0 CFG=2
M  V30 4 O 75.672300 55.699100 41.229500 0
M  V30 5 C 73.343400 56.330600 40.038800 0
M  V30 6 F 72.034800 56.127600 40.124000 0
M  V30 7 F 73.590100 57.632900 39.922300 0
M  V30 8 F 73.804400 55.749300 38.933600 0
M  V30 9 H 73.672300 58.378400 42.104900 0
M  V30 10 H 73.194500 58.161800 43.749100 0
M  V30 11 H 74.878400 58.025100 43.324900 0
M  V30 12 R 73.711600 53.843200 41.757600 0
M  V30 END ATOM
M  V30 BEGIN BOND
M  V30 1 1 2 1
M  V30 2 2 3 2
M  V30 3 2 4 3
M  V30 4 1 5 3
M  V30 5 1 6 5
M  V30 6 1 7 5
M  V30 7 1 8 5
M  V30 8 1 9 1
M  V30 9 1 10 1
M  V30 10 1 11 1
M  V30 11 1 3 12 CFG=1
M  V30 END BOND
M  V30 END CTAB
M  END
$$$$
R-group 54 (1400-1)
     RDKit          3D

  0  0  0  0  0  0  0  0  0  0999 V3000
M  V30 BEGIN CTAB
M  V30 COUNTS 21 20 0 0 1
M  V30 BEGIN ATOM
M  V30 1 C 73.105800 57.650400 43.200400 0
M  V30 2 C 73.279100 57.978900 41.714600 0
M  V30 3 C 74.164700 57.034100 40.846600 0
M  V30 4 C 73.857000 57.254800 39.348700 0
M  V30 5 C 75.692100 57.206400 41.070000 0
M  V30 6 N 73.780000 55.655500 41.104600 0
M  V30 7 C 74.152100 54.862200 42.119200 0
M  V30 8 O 74.872500 55.239300 43.042100 0
M  V30 9 H 72.487300 58.406600 43.658700 0
M  V30 10 H 74.064500 57.658100 43.715200 0
M  V30 11 H 72.609800 56.696400 43.380900 0
M  V30 12 H 72.290800 58.059200 41.265300 0
M  V30 13 H 73.672200 58.980100 41.724800 0
M  V30 14 H 74.027000 58.278900 39.020600 0
M  V30 15 H 74.472200 56.612000 38.717200 0
M  V30 16 H 72.816900 57.025000 39.117500 0
M  V30 17 H 76.111500 58.058000 40.552100 0
M  V30 18 H 75.949500 57.309700 42.123500 0
M  V30 19 H 76.243200 56.345700 40.688300 0
M  V30 20 H 73.191300 55.231000 40.404800 0
M  V30 21 R 73.660500 53.412200 42.085800 0
M  V30 END ATOM
M  V30 BEGIN BOND
M  V30 1 1 2 1
M  V30 2 1 3 2
M  V30 3 1 4 3
M  V30 4 1 5 3
M  V30 5 1 6 3
M  V30 6 1 7 6
M  V30 7 2 8 7
M  V30 8 1 9 1
M  V30 9 1 10 1
M  V30 10 1 11 1
M  V30 11 1 12 2
M  V30 12 1 13 2
M  V30 13 1 14 4
M  V30 14 1 15 4
M  V30 15 1 16 4
M  V30 16 1 17 5
M  V30 17 1 18 5
M  V30 18 1 19 5
M  V30 19 1 20 6
M  V30 20 1 21 7
M  V30 END BOND
M  V30 END CTAB
M  END
$$$$
R-group 55 (40039-1)
     RDKit          3D

  0  0  0  0  0  0  0  0  0  0999 V3000
M  V30 BEGIN CTAB
M  V30 COUNTS 19 19 0 0 1
M  V30 BEGIN ATOM
M  V30 1 C 73.567200 55.062200 42.524900 0
M  V30 2 C 74.323900 56.355600 42.119800 0
M  V30 3 O 75.671800 56.215400 42.487400 0
M  V30 4 C 74.240100 56.888100 40.678800 0
M  V30 5 C 72.899700 57.578400 40.603100 0
M  V30 6 C 72.829700 58.308100 41.936300 0
M  V30 7 C 73.701600 57.518800 42.920400 0
M  V30 8 H 72.497100 55.245200 42.525300 0
M  V30 9 H 73.812900 54.995900 43.575100 0
M  V30 10 H 75.017200 57.647200 40.560200 0
M  V30 11 H 74.379500 56.210900 39.849100 0
M  V30 12 H 72.872800 58.232500 39.737100 0
M  V30 13 H 72.084300 56.858600 40.518400 0
M  V30 14 H 73.270900 59.279500 41.805300 0
M  V30 15 H 71.810900 58.459400 42.279900 0
M  V30 16 H 73.109200 57.179000 43.770200 0
M  V30 17 H 74.471900 58.170700 43.325300 0
M  V30 18 H 76.112100 57.039300 42.345400 0
M  V30 19 R 73.785500 53.667600 41.864800 0
M  V30 END ATOM
M  V30 BEGIN BOND
M  V30 1 1 2 1
M  V30 2 1 3 2
M  V30 3 1 4 2
M  V30 4 1 5 4
M  V30 5 1 6 5
M  V30 6 1 7 2
M  V30 7 1 7 6
M  V30 8 1 8 1
M  V30 9 1 9 1
M  V30 10 1 10 4
M  V30 11 1 11 4
M  V30 12 1 12 5
M  V30 13 1 13 5
M  V30 14 1 14 6
M  V30 15 1 15 6
M  V30 16 1 16 7
M  V30 17 1 17 7
M  V30 18 1 18 3
M  V30 19 1 19 1
M  V30 END BOND
M  V30 END CTAB
M  END
$$$$
R-group 56 (3064-2)
     RDKit          3D

  0  0  0  0  0  0  0  0  0  0999 V3000
M  V30 BEGIN CTAB
M  V30 COUNTS 17 17 0 0 1
M  V30 BEGIN ATOM
M  V30 1 C 73.886000 54.880500 41.651400 0 CFG=2
M  V30 2 C 75.319300 54.999000 41.074500 0
M  V30 3 C 75.780900 56.429300 40.996600 0
M  V30 4 N 75.711100 56.858500 42.369300 0
M  V30 5 C 74.346600 57.146700 42.738900 0
M  V30 6 C 73.769600 55.764800 42.924700 0
M  V30 7 F 72.503900 55.911600 43.322100 0
M  V30 8 F 74.472700 55.250800 43.940500 0
M  V30 9 H 73.208500 55.321000 40.921100 0
M  V30 10 H 76.033700 54.493100 41.725200 0
M  V30 11 H 75.434900 54.570800 40.093100 0
M  V30 12 H 75.160200 57.035600 40.333000 0
M  V30 13 H 76.809900 56.480900 40.636100 0
M  V30 14 H 76.052900 56.124600 42.976300 0
M  V30 15 H 73.828800 57.735800 41.981600 0
M  V30 16 H 74.317100 57.695500 43.688000 0
M  V30 17 R 73.458300 53.405700 41.890600 0
M  V30 END ATOM
M  V30 BEGIN BOND
M  V30 1 1 2 1
M  V30 2 1 3 2
M  V30 3 1 4 3
M  V30 4 1 5 4
M  V30 5 1 6 1
M  V30 6 1 6 5
M  V30 7 1 7 6
M  V30 8 1 8 6
M  V30 9 1 1 9 CFG=3
M  V30 10 1 10 2
M  V30 11 1 11 2
M  V30 12 1 12 3
M  V30 13 1 13 3
M  V30 14 1 14 4
M  V30 15 1 15 5
M  V30 16 1 16 5
M  V30 17 1 17 1
M  V30 END BOND
M  V30 END CTAB
M  END
$$$$
R-group 57 (44875-4)
     RDKit          3D

  0  0  0  0  0  0  0  0  0  0999 V3000
M  V30 BEGIN CTAB
M  V30 COUNTS 18 18 0 0 1
M  V30 BEGIN ATOM
M  V30 1 C 73.871800 54.899200 42.498800 0 CFG=2
M  V30 2 O 73.531500 55.573700 41.317100 0
M  V30 3 C 74.165000 56.815400 41.172500 0 CFG=2
M  V30 4 C 74.677800 56.709000 39.734600 0
M  V30 5 F 73.737500 56.219600 38.924900 0
M  V30 6 C 75.241900 56.832400 42.269600 0 CFG=2
M  V30 7 O 76.472200 57.258000 41.724700 0
M  V30 8 C 75.306100 55.379400 42.745800 0 CFG=1
M  V30 9 O 75.672200 55.257700 44.121300 0
M  V30 10 H 73.229500 55.290000 43.285300 0
M  V30 11 H 73.445700 57.627700 41.287700 0
M  V30 12 H 74.989500 57.658900 39.325200 0
M  V30 13 H 75.523100 56.030200 39.724600 0
M  V30 14 H 74.931900 57.493600 43.080000 0
M  V30 15 H 75.978600 54.822600 42.099400 0
M  V30 16 H 76.797000 56.593200 41.137300 0
M  V30 17 H 74.957900 55.579200 44.650500 0
M  V30 18 R 73.601200 53.389000 42.240800 0
M  V30 END ATOM
M  V30 BEGIN BOND
M  V30 1 1 2 1
M  V30 2 1 3 2
M  V30 3 1 4 3
M  V30 4 1 5 4
M  V30 5 1 6 3
M  V30 6 1 7 6
M  V30 7 1 8 1
M  V30 8 1 8 6
M  V30 9 1 9 8
M  V30 10 1 1 10 CFG=1
M  V30 11 1 3 11 CFG=3
M  V30 12 1 12 4
M  V30 13 1 13 4
M  V30 14 1 6 14 CFG=1
M  V30 15 1 8 15 CFG=3
M  V30 16 1 16 7
M  V30 17 1 17 9
M  V30 18 1 18 1
M  V30 END BOND
M  V30 END CTAB
M  END
$$$$
R-group 58 (1490-2)
     RDKit          3D

  0  0  0  0  0  0  0  0  0  0999 V3000
M  V30 BEGIN CTAB
M  V30 COUNTS 12 11 0 0 1
M  V30 BEGIN ATOM
M  V30 1 C 74.380600 55.335800 42.404600 0
M  V30 2 C 73.337200 56.475600 42.314600 0 CFG=2
M  V30 3 C 73.042300 56.956100 40.878400 0
M  V30 4 O 73.810400 57.647500 42.924500 0
M  V30 5 H 74.792500 55.383100 43.413000 0
M  V30 6 H 75.227500 55.547300 41.751800 0
M  V30 7 H 72.472400 56.201300 42.924700 0
M  V30 8 H 72.471600 56.249000 40.287600 0
M  V30 9 H 72.470600 57.884200 40.884100 0
M  V30 10 H 73.966700 57.161600 40.337200 0
M  V30 11 H 73.954100 57.473900 43.842300 0
M  V30 12 R 73.855300 53.880600 42.175400 0
M  V30 END ATOM
M  V30 BEGIN BOND
M  V30 1 1 2 1
M  V30 2 1 3 2
M  V30 3 1 4 2
M  V30 4 1 5 1
M  V30 5 1 6 1
M  V30 6 1 2 7 CFG=1
M  V30 7 1 8 3
M  V30 8 1 9 3
M  V30 9 1 10 3
M  V30 10 1 11 4
M  V30 11 1 12 1
M  V30 END BOND
M  V30 END CTAB
M  END
$$$$
R-group 59 (26169-4)
     RDKit          3D

  0  0  0  0  0  0  0  0  0  0999 V3000
M  V30 BEGIN CTAB
M  V30 COUNTS 21 21 0 0 1
M  V30 BEGIN ATOM
M  V30 1 C 72.525000 58.240400 40.566700 0
M  V30 2 C 72.947800 57.044000 39.706700 0
M  V30 3 C 74.468300 56.967200 39.487400 0
M  V30 4 C 75.341100 56.954500 40.754600 0
M  V30 5 C 75.319400 55.669600 41.549100 0 CFG=1
M  V30 6 C 75.220700 55.750100 43.048400 0
M  V30 7 C 74.075700 55.153800 42.245800 0 CFG=2
M  V30 8 H 71.479400 58.458000 40.524900 0
M  V30 9 H 72.834700 58.170600 41.609300 0
M  V30 10 H 72.872200 59.154700 40.142600 0
M  V30 11 H 72.475800 57.134500 38.728600 0
M  V30 12 H 72.558700 56.121000 40.124800 0
M  V30 13 H 74.747300 57.855200 38.924600 0
M  V30 14 H 74.703000 56.114700 38.853900 0
M  V30 15 H 75.052400 57.769800 41.406700 0
M  V30 16 H 76.377900 57.152700 40.479800 0
M  V30 17 H 76.021600 54.932800 41.179300 0
M  V30 18 H 75.104500 56.755200 43.439100 0
M  V30 19 H 75.873300 55.114200 43.637900 0
M  V30 20 H 73.203900 55.797600 42.226800 0
M  V30 21 R 73.700200 53.665400 42.192800 0
M  V30 END ATOM
M  V30 BEGIN BOND
M  V30 1 1 2 1
M  V30 2 1 3 2
M  V30 3 1 4 3
M  V30 4 1 5 4
M  V30 5 1 6 5
M  V30 6 1 7 5
M  V30 7 1 7 6
M  V30 8 1 8 1
M  V30 9 1 9 1
M  V30 10 1 10 1
M  V30 11 1 11 2
M  V30 12 1 12 2
M  V30 13 1 13 3
M  V30 14 1 14 3
M  V30 15 1 15 4
M  V30 16 1 16 4
M  V30 17 1 5 17 CFG=1
M  V30 18 1 18 6
M  V30 19 1 19 6
M  V30 20 1 7 20 CFG=3
M  V30 21 1 21 7
M  V30 END BOND
M  V30 END CTAB
M  END
$$$$
R-group 60 (8824-1)
     RDKit          3D

  0  0  0  0  0  0  0  0  0  0999 V3000
M  V30 BEGIN CTAB
M  V30 COUNTS 10 10 0 0 1
M  V30 BEGIN ATOM
M  V30 1 C 73.548200 54.848900 42.774400 0
M  V30 2 C 74.258000 55.789000 41.901300 0
M  V30 3 N 75.517600 56.178400 42.059000 0
M  V30 4 N 75.823400 56.858000 40.924700 0
M  V30 5 C 74.709900 56.857900 40.184600 0
M  V30 6 O 73.672300 56.221100 40.759800 0
M  V30 7 H 72.537300 55.227400 42.924700 0
M  V30 8 H 74.072200 54.919600 43.724700 0
M  V30 9 H 74.611400 57.332800 39.219400 0
M  V30 10 R 73.499300 53.389400 42.259800 0
M  V30 END ATOM
M  V30 BEGIN BOND
M  V30 1 1 2 1
M  V30 2 2 3 2
M  V30 3 1 4 3
M  V30 4 2 5 4
M  V30 5 1 6 2
M  V30 6 1 6 5
M  V30 7 1 7 1
M  V30 8 1 8 1
M  V30 9 1 9 5
M  V30 10 1 10 1
M  V30 END BOND
M  V30 END CTAB
M  END
$$$$
R-group 61 (3533-1)
     RDKit          3D

  0  0  0  0  0  0  0  0  0  0999 V3000
M  V30 BEGIN CTAB
M  V30 COUNTS 17 17 0 0 1
M  V30 BEGIN ATOM
M  V30 1 N 73.273300 54.647100 42.389000 0
M  V30 2 C 74.402400 55.399600 42.925500 0 CFG=2
M  V30 3 C 73.966100 56.854500 43.195500 0
M  V30 4 C 73.916300 57.612900 41.893600 0
M  V30 5 S 75.228100 56.858000 40.893700 0
M  V30 6 O 74.563800 56.457800 39.647600 0
M  V30 7 O 76.472300 57.644800 40.924500 0
M  V30 8 C 75.543000 55.442600 41.929900 0
M  V30 9 H 72.624900 54.606500 43.174800 0
M  V30 10 H 74.728600 54.968900 43.869100 0
M  V30 11 H 73.044200 56.939900 43.772500 0
M  V30 12 H 74.767900 57.367100 43.724700 0
M  V30 13 H 72.968900 57.442000 41.383400 0
M  V30 14 H 74.071900 58.677100 42.006300 0
M  V30 15 H 76.471600 55.674600 42.438400 0
M  V30 16 H 75.672400 54.571100 41.303500 0
M  V30 17 R 73.453300 53.269400 41.937000 0
M  V30 END ATOM
M  V30 BEGIN BOND
M  V30 1 1 2 1
M  V30 2 1 3 2
M  V30 3 1 4 3
M  V30 4 1 5 4
M  V30 5 2 6 5
M  V30 6 2 7 5
M  V30 7 1 8 2
M  V30 8 1 8 5
M  V30 9 1 9 1
M  V30 10 1 2 10 CFG=1
M  V30 11 1 11 3
M  V30 12 1 12 3
M  V30 13 1 13 4
M  V30 14 1 14 4
M  V30 15 1 15 8
M  V30 16 1 16 8
M  V30 17 1 17 1
M  V30 END BOND
M  V30 END CTAB
M  END
$$$$
R-group 62 (2701-1)
     RDKit          3D

  0  0  0  0  0  0  0  0  0  0999 V3000
M  V30 BEGIN CTAB
M  V30 COUNTS 14 14 0 0 1
M  V30 BEGIN ATOM
M  V30 1 C 73.545200 54.675600 42.924600 0
M  V30 2 C 74.247600 55.632600 42.113500 0
M  V30 3 C 75.440400 56.225300 42.380100 0
M  V30 4 S 76.072100 56.858000 40.924700 0
M  V30 5 C 74.548200 56.458700 40.096000 0
M  V30 6 C 74.172700 56.422500 38.654400 0
M  V30 7 N 73.672200 55.974400 40.921600 0
M  V30 8 H 72.513400 55.025300 42.986600 0
M  V30 9 H 74.072300 54.749600 43.877600 0
M  V30 10 H 76.052700 56.171400 43.267500 0
M  V30 11 H 74.067900 55.381000 38.352500 0
M  V30 12 H 73.199100 56.891300 38.524900 0
M  V30 13 H 74.872100 56.858500 37.973200 0
M  V30 14 R 73.537800 53.223900 42.385200 0
M  V30 END ATOM
M  V30 BEGIN BOND
M  V30 1 1 2 1
M  V30 2 2 3 2
M  V30 3 1 4 3
M  V30 4 1 5 4
M  V30 5 1 6 5
M  V30 6 1 7 2
M  V30 7 2 7 5
M  V30 8 1 8 1
M  V30 9 1 9 1
M  V30 10 1 10 3
M  V30 11 1 11 6
M  V30 12 1 12 6
M  V30 13 1 13 6
M  V30 14 1 14 1
M  V30 END BOND
M  V30 END CTAB
M  END
$$$$
R-group 63 (22682-1)
     RDKit          3D

  0  0  0  0  0  0  0  0  0  0999 V3000
M  V30 BEGIN CTAB
M  V30 COUNTS 14 13 0 0 1
M  V30 BEGIN ATOM
M  V30 1 C 73.928700 54.880500 41.472500 0 CFG=2
M  V30 2 C 75.391000 55.246500 41.099100 0
M  V30 3 C 73.452600 55.614700 42.716900 0
M  V30 4 C 73.667500 57.104300 42.638400 0
M  V30 5 F 73.365000 57.634600 41.450100 0
M  V30 6 F 72.876500 57.658600 43.552100 0
M  V30 7 F 74.952400 57.258100 42.924900 0
M  V30 8 H 73.301500 55.232400 40.650300 0
M  V30 9 H 76.064800 55.209600 41.955000 0
M  V30 10 H 75.817900 54.607800 40.337000 0
M  V30 11 H 75.453300 56.257400 40.697700 0
M  V30 12 H 72.416000 55.370700 42.924800 0
M  V30 13 H 73.993200 55.264000 43.594500 0
M  V30 14 R 73.634600 53.379600 41.670400 0
M  V30 END ATOM
M  V30 BEGIN BOND
M  V30 1 1 2 1
M  V30 2 1 3 1
M  V30 3 1 4 3
M  V30 4 1 5 4
M  V30 5 1 6 4
M  V30 6 1 7 4
M  V30 7 1 1 8 CFG=3
M  V30 8 1 9 2
M  V30 9 1 10 2
M  V30 10 1 11 2
M  V30 11 1 12 3
M  V30 12 1 13 3
M  V30 13 1 14 1
M  V30 END BOND
M  V30 END CTAB
M  END
$$$$
R-group 64 (11213-1)
     RDKit          3D

  0  0  0  0  0  0  0  0  0  0999 V3000
M  V30 BEGIN CTAB
M  V30 COUNTS 16 16 0 0 1
M  V30 BEGIN ATOM
M  V30 1 N 73.888700 55.101600 42.089900 0
M  V30 2 C 73.114500 55.768200 43.149000 0
M  V30 3 C 72.949700 57.253000 42.928800 0
M  V30 4 C 74.295400 57.860700 42.790500 0
M  V30 5 C 75.067800 57.257500 41.630400 0
M  V30 6 C 74.880500 55.766600 41.443300 0
M  V30 7 O 75.642900 55.260300 40.645100 0
M  V30 8 H 72.130000 55.329800 43.323000 0
M  V30 9 H 73.674500 55.658500 44.070400 0
M  V30 10 H 72.472100 57.463400 41.980200 0
M  V30 11 H 72.410200 57.730900 43.744900 0
M  V30 12 H 74.864200 57.883700 43.724000 0
M  V30 13 H 74.071000 58.857900 42.468300 0
M  V30 14 H 76.126700 57.511300 41.682800 0
M  V30 15 H 74.678400 57.657900 40.699600 0
M  V30 16 R 73.626500 53.651200 41.938000 0
M  V30 END ATOM
M  V30 BEGIN BOND
M  V30 1 1 2 1
M  V30 2 1 3 2
M  V30 3 1 4 3
M  V30 4 1 5 4
M  V30 5 1 6 1
M  V30 6 1 6 5
M  V30 7 2 7 6
M  V30 8 1 8 2
M  V30 9 1 9 2
M  V30 10 1 10 3
M  V30 11 1 11 3
M  V30 12 1 12 4
M  V30 13 1 13 4
M  V30 14 1 14 5
M  V30 15 1 15 5
M  V30 16 1 16 1
M  V30 END BOND
M  V30 END CTAB
M  END
$$$$
R-group 65 (5663-4)
     RDKit          3D

  0  0  0  0  0  0  0  0  0  0999 V3000
M  V30 BEGIN CTAB
M  V30 COUNTS 20 20 0 0 1
M  V30 BEGIN ATOM
M  V30 1 C 73.849800 54.795400 41.537300 0
M  V30 2 C 73.221300 55.472700 40.281900 0
M  V30 3 C 73.692900 56.914000 40.173400 0 CFG=2
M  V30 4 O 75.101000 56.858300 40.125300 0
M  V30 5 C 73.236300 57.736200 41.379500 0
M  V30 6 C 73.645600 57.082400 42.704200 0 CFG=1
M  V30 7 O 72.872300 57.657600 43.721800 0
M  V30 8 C 73.417300 55.570000 42.785300 0
M  V30 9 H 74.935800 54.875600 41.461200 0
M  V30 10 H 73.501800 54.997800 39.345700 0
M  V30 11 H 72.133700 55.417700 40.300200 0
M  V30 12 H 73.321000 57.364100 39.252300 0
M  V30 13 H 73.652700 58.736200 41.355700 0
M  V30 14 H 72.163500 57.891800 41.323500 0
M  V30 15 H 74.701100 57.281000 42.882800 0
M  V30 16 H 72.368700 55.331800 42.942500 0
M  V30 17 H 73.971900 55.229100 43.657900 0
M  V30 18 H 75.370900 56.465000 39.309900 0
M  V30 19 H 73.039100 57.188300 44.526000 0
M  V30 20 R 73.550600 53.284000 41.695500 0
M  V30 END ATOM
M  V30 BEGIN BOND
M  V30 1 1 2 1
M  V30 2 1 3 2
M  V30 3 1 4 3
M  V30 4 1 5 3
M  V30 5 1 6 5
M  V30 6 1 7 6
M  V30 7 1 8 1
M  V30 8 1 8 6
M  V30 9 1 9 1
M  V30 10 1 10 2
M  V30 11 1 11 2
M  V30 12 1 3 12 CFG=3
M  V30 13 1 13 5
M  V30 14 1 14 5
M  V30 15 1 6 15 CFG=1
M  V30 16 1 16 8
M  V30 17 1 17 8
M  V30 18 1 18 4
M  V30 19 1 19 7
M  V30 20 1 20 1
M  V30 END BOND
M  V30 END CTAB
M  END
$$$$
R-group 66 (7616-2)
     RDKit          3D

  0  0  0  0  0  0  0  0  0  0999 V3000
M  V30 BEGIN CTAB
M  V30 COUNTS 16 15 0 0 1
M  V30 BEGIN ATOM
M  V30 1 C 76.297800 57.129300 40.735300 0
M  V30 2 O 76.076500 56.858400 42.110800 0
M  V30 3 C 75.414500 55.653900 42.389000 0
M  V30 4 C 73.911300 55.847500 42.190400 0 CFG=2
M  V30 5 C 73.349000 56.922600 43.132100 0
M  V30 6 O 73.201400 54.648300 42.451800 0
M  V30 7 H 76.872600 58.049200 40.634700 0
M  V30 8 H 76.871500 56.330500 40.266900 0
M  V30 9 H 75.370900 57.256200 40.178900 0
M  V30 10 H 75.620700 55.378400 43.425100 0
M  V30 11 H 75.821100 54.874300 41.746400 0
M  V30 12 H 73.698600 56.171000 41.170700 0
M  V30 13 H 74.067500 57.717100 43.322500 0
M  V30 14 H 72.481200 57.404600 42.690600 0
M  V30 15 H 73.049400 56.499100 44.093900 0
M  V30 16 R 73.495500 53.447600 41.753600 0
M  V30 END ATOM
M  V30 BEGIN BOND
M  V30 1 1 2 1
M  V30 2 1 3 2
M  V30 3 1 4 3
M  V30 4 1 5 4
M  V30 5 1 6 4
M  V30 6 1 7 1
M  V30 7 1 8 1
M  V30 8 1 9 1
M  V30 9 1 10 3
M  V30 10 1 11 3
M  V30 11 1 4 12 CFG=3
M  V30 12 1 13 5
M  V30 13 1 14 5
M  V30 14 1 15 5
M  V30 15 1 16 6
M  V30 END BOND
M  V30 END CTAB
M  END
$$$$
R-group 67 (21849-1)
     RDKit          3D

  0  0  0  0  0  0  0  0  0  0999 V3000
M  V30 BEGIN CTAB
M  V30 COUNTS 14 14 0 0 1
M  V30 BEGIN ATOM
M  V30 1 N 72.842000 54.071700 42.124600 0
M  V30 2 C 73.912300 55.052400 42.319900 0
M  V30 3 C 75.272800 54.934200 41.587900 0
M  V30 4 S 75.527000 56.653900 41.890000 0
M  V30 5 O 76.070900 56.856300 43.236600 0
M  V30 6 O 76.072400 57.258000 40.676500 0
M  V30 7 C 73.718700 56.530400 41.898200 0
M  V30 8 H 72.298200 54.041700 42.984200 0
M  V30 9 H 74.107100 55.043500 43.392900 0
M  V30 10 H 76.024300 54.341900 42.094400 0
M  V30 11 H 75.239400 54.777000 40.514400 0
M  V30 12 H 73.322900 56.674900 40.891700 0
M  V30 13 H 73.274700 57.185900 42.643600 0
M  V30 14 R 73.262200 52.746100 41.750300 0
M  V30 END ATOM
M  V30 BEGIN BOND
M  V30 1 1 2 1
M  V30 2 1 3 2
M  V30 3 1 4 3
M  V30 4 2 5 4
M  V30 5 2 6 4
M  V30 6 1 7 2
M  V30 7 1 7 4
M  V30 8 1 8 1
M  V30 9 1 9 2
M  V30 10 1 10 3
M  V30 11 1 11 3
M  V30 12 1 12 7
M  V30 13 1 13 7
M  V30 14 1 14 1
M  V30 END BOND
M  V30 END CTAB
M  END
$$$$
R-group 68 (10982-2)
     RDKit          3D

  0  0  0  0  0  0  0  0  0  0999 V3000
M  V30 BEGIN CTAB
M  V30 COUNTS 13 13 0 0 1
M  V30 BEGIN ATOM
M  V30 1 C 74.338700 54.808500 42.077800 0 CFG=2
M  V30 2 C 74.111400 55.669500 43.324800 0
M  V30 3 C 73.915800 55.566300 40.876500 0
M  V30 4 N 72.872200 55.345700 40.077700 0
M  V30 5 N 72.711300 56.449800 39.324700 0
M  V30 6 C 73.672200 57.258000 39.724600 0
M  V30 7 O 74.497000 56.763500 40.666200 0
M  V30 8 H 75.420200 54.720500 41.959200 0
M  V30 9 H 74.655800 56.611900 43.255900 0
M  V30 10 H 73.056900 55.919700 43.444300 0
M  V30 11 H 74.472300 55.177600 44.226900 0
M  V30 12 H 73.808900 58.241700 39.306600 0
M  V30 13 R 73.764800 53.361000 42.210600 0
M  V30 END ATOM
M  V30 BEGIN BOND
M  V30 1 1 2 1
M  V30 2 1 3 1
M  V30 3 2 4 3
M  V30 4 1 5 4
M  V30 5 2 6 5
M  V30 6 1 7 3
M  V30 7 1 7 6
M  V30 8 1 1 8 CFG=3
M  V30 9 1 9 2
M  V30 10 1 10 2
M  V30 11 1 11 2
M  V30 12 1 12 6
M  V30 13 1 13 1
M  V30 END BOND
M  V30 END CTAB
M  END
$$$$
R-group 69 (20580-1)
     RDKit          3D

  0  0  0  0  0  0  0  0  0  0999 V3000
M  V30 BEGIN CTAB
M  V30 COUNTS 14 14 0 0 1
M  V30 BEGIN ATOM
M  V30 1 N 73.072000 54.026400 42.524700 0
M  V30 2 C 73.848500 55.063300 42.128500 0
M  V30 3 C 74.816800 55.629700 42.878700 0
M  V30 4 C 75.678900 56.591400 42.238200 0
M  V30 5 C 75.554000 56.856500 40.922700 0
M  V30 6 C 74.447100 56.292800 40.143300 0
M  V30 7 O 74.188100 56.458400 38.966500 0
M  V30 8 N 73.665600 55.476600 40.826500 0
M  V30 9 H 72.869200 54.051700 43.524400 0
M  V30 10 H 75.001700 55.302000 43.884300 0
M  V30 11 H 76.471900 57.051700 42.803100 0
M  V30 12 H 76.235800 57.546400 40.448900 0
M  V30 13 H 72.890900 55.054300 40.334000 0
M  V30 14 R 73.367500 52.686100 42.094500 0
M  V30 END ATOM
M  V30 BEGIN BOND
M  V30 1 1 2 1
M  V30 2 2 3 2
M  V30 3 1 4 3
M  V30 4 2 5 4
M  V30 5 1 6 5
M  V30 6 2 7 6
M  V30 7 1 8 2
M  V30 8 1 8 6
M  V30 9 1 9 1
M  V30 10 1 10 3
M  V30 11 1 11 4
M  V30 12 1 12 5
M  V30 13 1 13 8
M  V30 14 1 14 1
M  V30 END BOND
M  V30 END CTAB
M  END
$$$$
R-group 70 (16161-4)
     RDKit          3D

  0  0  0  0  0  0  0  0  0  0999 V3000
M  V30 BEGIN CTAB
M  V30 COUNTS 19 19 0 0 1
M  V30 BEGIN ATOM
M  V30 1 O 73.007600 54.436800 42.271800 0
M  V30 2 C 73.767300 55.605100 42.026100 0 CFG=1
M  V30 3 C 73.374500 56.649700 43.052700 0
M  V30 4 C 74.469100 57.657700 42.905500 0
M  V30 5 C 75.747000 56.862800 42.684700 0 CFG=2
M  V30 6 C 76.688000 57.657900 41.799900 0
M  V30 7 C 75.302700 55.516500 42.121300 0
M  V30 8 H 73.499200 56.003200 41.047000 0
M  V30 9 H 72.472300 57.163300 42.800000 0
M  V30 10 H 73.272800 56.239100 44.056200 0
M  V30 11 H 74.206200 58.224600 42.005900 0
M  V30 12 H 74.551800 58.363600 43.722600 0
M  V30 13 H 76.225700 56.702900 43.651500 0
M  V30 14 H 76.296300 57.869200 40.804500 0
M  V30 15 H 76.872300 58.561800 42.327900 0
M  V30 16 H 77.672600 57.257000 41.724800 0
M  V30 17 H 75.633800 54.764200 42.830100 0
M  V30 18 H 75.760400 55.283100 41.158400 0
M  V30 19 R 73.363100 53.236600 41.635200 0
M  V30 END ATOM
M  V30 BEGIN BOND
M  V30 1 1 2 1
M  V30 2 1 3 2
M  V30 3 1 4 3
M  V30 4 1 5 4
M  V30 5 1 6 5
M  V30 6 1 7 2
M  V30 7 1 7 5
M  V30 8 1 2 8 CFG=3
M  V30 9 1 9 3
M  V30 10 1 10 3
M  V30 11 1 11 4
M  V30 12 1 12 4
M  V30 13 1 5 13 CFG=1
M  V30 14 1 14 6
M  V30 15 1 15 6
M  V30 16 1 16 6
M  V30 17 1 17 7
M  V30 18 1 18 7
M  V30 19 1 19 1
M  V30 END BOND
M  V30 END CTAB
M  END
$$$$
R-group 71 (27675-1)
     RDKit          3D

  0  0  0  0  0  0  0  0  0  0999 V3000
M  V30 BEGIN CTAB
M  V30 COUNTS 13 12 0 0 1
M  V30 BEGIN ATOM
M  V30 1 O 74.991600 54.957300 42.109500 0
M  V30 2 C 74.859300 56.053800 41.217400 0
M  V30 3 C 73.531800 56.734400 41.485700 0 CFG=1
M  V30 4 O 73.672200 57.658000 42.525500 0
M  V30 5 C 72.929400 57.398400 40.247300 0
M  V30 6 F 72.513400 56.458000 39.394200 0
M  V30 7 H 75.690300 56.745000 41.366100 0
M  V30 8 H 74.928900 55.734300 40.180300 0
M  V30 9 H 72.872300 55.980100 41.868100 0
M  V30 10 H 72.072200 58.009800 40.524700 0
M  V30 11 H 73.646300 58.032900 39.725200 0
M  V30 12 H 74.031400 57.201100 43.272400 0
M  V30 13 R 74.109200 53.824600 42.060600 0
M  V30 END ATOM
M  V30 BEGIN BOND
M  V30 1 1 2 1
M  V30 2 1 3 2
M  V30 3 1 4 3
M  V30 4 1 5 3
M  V30 5 1 6 5
M  V30 6 1 7 2
M  V30 7 1 8 2
M  V30 8 1 3 9 CFG=1
M  V30 9 1 10 5
M  V30 10 1 11 5
M  V30 11 1 12 4
M  V30 12 1 13 1
M  V30 END BOND
M  V30 END CTAB
M  END
$$$$
R-group 72 (43520-1)
     RDKit          3D

  0  0  0  0  0  0  0  0  0  0999 V3000
M  V30 BEGIN CTAB
M  V30 COUNTS 16 15 0 0 1
M  V30 BEGIN ATOM
M  V30 1 C 74.050100 55.298900 41.916000 0 CFG=2
M  V30 2 C 75.545000 55.623400 41.682400 0
M  V30 3 O 75.697900 56.858000 41.017300 0
M  V30 4 C 73.529400 56.030900 43.176200 0
M  V30 5 C 73.655200 57.560300 43.157800 0
M  V30 6 O 73.272000 58.057000 41.903500 0
M  V30 7 H 73.495300 55.700000 41.067500 0
M  V30 8 H 76.079000 55.657800 42.631100 0
M  V30 9 H 76.034400 54.882000 41.063900 0
M  V30 10 H 72.477900 55.782700 43.324300 0
M  V30 11 H 74.069400 55.657300 44.046800 0
M  V30 12 H 73.029800 58.006800 43.930900 0
M  V30 13 H 74.684300 57.866600 43.341700 0
M  V30 14 H 76.615200 56.983900 40.820200 0
M  V30 15 H 73.944700 57.784700 41.288000 0
M  V30 16 R 73.699900 53.774300 41.943200 0
M  V30 END ATOM
M  V30 BEGIN BOND
M  V30 1 1 2 1
M  V30 2 1 3 2
M  V30 3 1 4 1
M  V30 4 1 5 4
M  V30 5 1 6 5
M  V30 6 1 1 7 CFG=3
M  V30 7 1 8 2
M  V30 8 1 9 2
M  V30 9 1 10 4
M  V30 10 1 11 4
M  V30 11 1 12 5
M  V30 12 1 13 5
M  V30 13 1 14 3
M  V30 14 1 15 6
M  V30 15 1 16 1
M  V30 END BOND
M  V30 END CTAB
M  END
$$$$
R-group 73 (16604-1)
     RDKit          3D

  0  0  0  0  0  0  0  0  0  0999 V3000
M  V30 BEGIN CTAB
M  V30 COUNTS 16 16 0 0 1
M  V30 BEGIN ATOM
M  V30 1 O 73.272200 54.552200 41.750800 0
M  V30 2 C 72.903500 55.258100 42.924700 0
M  V30 3 C 73.129000 56.760000 42.863500 0
M  V30 4 C 74.336800 56.878000 42.115900 0
M  V30 5 C 75.642700 56.858000 42.622100 0
M  V30 6 N 76.472200 56.910400 41.634800 0
M  V30 7 N 75.752700 56.858000 40.524700 0
M  V30 8 C 74.426100 56.858000 40.759300 0
M  V30 9 H 71.901900 55.016000 43.292200 0
M  V30 10 H 73.678600 54.988100 43.633100 0
M  V30 11 H 72.472200 57.358100 42.275200 0
M  V30 12 H 73.178700 57.207500 43.854300 0
M  V30 13 H 76.001300 56.832300 43.641100 0
M  V30 14 H 73.682000 56.816100 39.977100 0
M  V30 15 H 76.195300 56.845800 39.615300 0
M  V30 16 R 73.299100 53.145500 41.844900 0
M  V30 END ATOM
M  V30 BEGIN BOND
M  V30 1 1 2 1
M  V30 2 1 3 2
M  V30 3 1 4 3
M  V30 4 1 5 4
M  V30 5 2 6 5
M  V30 6 1 7 6
M  V30 7 2 8 4
M  V30 8 1 8 7
M  V30 9 1 9 2
M  V30 10 1 10 2
M  V30 11 1 11 3
M  V30 12 1 12 3
M  V30 13 1 13 5
M  V30 14 1 14 8
M  V30 15 1 15 7
M  V30 16 1 16 1
M  V30 END BOND
M  V30 END CTAB
M  END
$$$$
R-group 74 (28052-1)
     RDKit          3D

  0  0  0  0  0  0  0  0  0  0999 V3000
M  V30 BEGIN CTAB
M  V30 COUNTS 16 16 0 0 1
M  V30 BEGIN ATOM
M  V30 1 C 73.557500 55.095900 41.574800 0 CFG=2
M  V30 2 C 74.952400 55.518100 41.075700 0
M  V30 3 C 75.276000 56.847200 41.706000 0
M  V30 4 C 74.169500 57.086700 42.707400 0 CFG=1
M  V30 5 C 73.204200 58.021400 42.153300 0
M  V30 6 N 72.486100 58.811900 41.734200 0
M  V30 7 C 73.432600 55.798800 42.932300 0
M  V30 8 H 72.866900 55.583300 40.886500 0
M  V30 9 H 75.712100 54.805300 41.373000 0
M  V30 10 H 75.003900 55.676700 40.001700 0
M  V30 11 H 75.253900 57.612700 40.931100 0
M  V30 12 H 76.264300 56.829800 42.152600 0
M  V30 13 H 74.582700 57.489100 43.639300 0
M  V30 14 H 73.980100 55.311000 43.718600 0
M  V30 15 H 72.396200 55.903300 43.290900 0
M  V30 16 R 73.260000 53.570000 41.589500 0
M  V30 END ATOM
M  V30 BEGIN BOND
M  V30 1 1 2 1
M  V30 2 1 3 2
M  V30 3 1 4 3
M  V30 4 1 5 4
M  V30 5 3 6 5
M  V30 6 1 7 1
M  V30 7 1 7 4
M  V30 8 1 1 8 CFG=3
M  V30 9 1 9 2
M  V30 10 1 10 2
M  V30 11 1 11 3
M  V30 12 1 12 3
M  V30 13 1 4 13 CFG=1
M  V30 14 1 14 7
M  V30 15 1 15 7
M  V30 16 1 16 1
M  V30 END BOND
M  V30 END CTAB
M  END
$$$$
R-group 75 (15251-1)
     RDKit          3D

  0  0  0  0  0  0  0  0  0  0999 V3000
M  V30 BEGIN CTAB
M  V30 COUNTS 15 15 0 0 1
M  V30 BEGIN ATOM
M  V30 1 C 74.083100 54.690200 41.457400 0
M  V30 2 C 73.391900 55.429500 40.274800 0
M  V30 3 N 73.615500 56.859000 40.351500 0
M  V30 4 C 73.500100 57.457800 41.542000 0
M  V30 5 O 72.872100 58.477200 41.723200 0
M  V30 6 N 74.147200 56.858000 42.527200 0
M  V30 7 C 73.837600 55.470500 42.743600 0
M  V30 8 H 75.154500 54.716500 41.250500 0
M  V30 9 H 73.732500 55.099800 39.298300 0
M  V30 10 H 72.315300 55.256400 40.306400 0
M  V30 11 H 72.767800 55.390000 42.940700 0
M  V30 12 H 74.391600 55.110200 43.607200 0
M  V30 13 H 73.305300 57.392800 39.550500 0
M  V30 14 H 74.245900 57.400600 43.372800 0
M  V30 15 R 73.636000 53.230200 41.651600 0
M  V30 END ATOM
M  V30 BEGIN BOND
M  V30 1 1 2 1
M  V30 2 1 3 2
M  V30 3 1 4 3
M  V30 4 2 5 4
M  V30 5 1 6 4
M  V30 6 1 7 1
M  V30 7 1 7 6
M  V30 8 1 8 1
M  V30 9 1 9 2
M  V30 10 1 10 2
M  V30 11 1 11 7
M  V30 12 1 12 7
M  V30 13 1 13 3
M  V30 14 1 14 6
M  V30 15 1 15 1
M  V30 END BOND
M  V30 END CTAB
M  END
$$$$
R-group 76 (26643-1)
     RDKit          3D

  0  0  0  0  0  0  0  0  0  0999 V3000
M  V30 BEGIN CTAB
M  V30 COUNTS 14 13 0 0 1
M  V30 BEGIN ATOM
M  V30 1 C 72.984000 57.604200 43.342400 0
M  V30 2 C 73.044000 56.067100 43.297500 0
M  V30 3 C 73.616900 55.458900 42.001200 0 CFG=1
M  V30 4 C 75.015000 56.028800 41.779300 0
M  V30 5 F 75.672200 55.359400 40.862800 0
M  V30 6 F 74.924100 57.258000 41.325100 0
M  V30 7 F 75.685700 56.058000 42.922100 0
M  V30 8 H 72.471800 57.930300 44.244500 0
M  V30 9 H 73.977400 58.049700 43.379100 0
M  V30 10 H 72.472200 58.024000 42.477600 0
M  V30 11 H 72.039200 55.677500 43.448400 0
M  V30 12 H 73.672400 55.728000 44.123000 0
M  V30 13 H 73.010700 55.849500 41.184000 0
M  V30 14 R 73.485600 53.892900 41.943300 0
M  V30 END ATOM
M  V30 BEGIN BOND
M  V30 1 1 2 1
M  V30 2 1 3 2
M  V30 3 1 4 3
M  V30 4 1 5 4
M  V30 5 1 6 4
M  V30 6 1 7 4
M  V30 7 1 8 1
M  V30 8 1 9 1
M  V30 9 1 10 1
M  V30 10 1 11 2
M  V30 11 1 12 2
M  V30 12 1 3 13 CFG=3
M  V30 13 1 14 3
M  V30 END BOND
M  V30 END CTAB
M  END
$$$$
R-group 77 (25213-1)
     RDKit          3D

  0  0  0  0  0  0  0  0  0  0999 V3000
M  V30 BEGIN CTAB
M  V30 COUNTS 15 15 0 0 1
M  V30 BEGIN ATOM
M  V30 1 C 76.827200 57.420300 40.406200 0
M  V30 2 C 76.624100 57.266000 41.899800 0
M  V30 3 C 75.277300 56.751000 42.173300 0
M  V30 4 C 74.088000 57.253500 42.607500 0
M  V30 5 C 73.324100 56.092300 42.925000 0
M  V30 6 C 73.974500 55.040900 42.377000 0
M  V30 7 O 75.191700 55.425400 41.942400 0
M  V30 8 H 77.873800 57.523200 40.129400 0
M  V30 9 H 76.499200 56.465700 40.114900 0
M  V30 10 H 76.194600 58.060300 39.781000 0
M  V30 11 H 76.910400 58.072900 42.558400 0
M  V30 12 H 77.272200 56.415000 42.119100 0
M  V30 13 H 73.857900 58.288600 42.817000 0
M  V30 14 H 72.374700 56.059300 43.401700 0
M  V30 15 R 73.641200 53.588300 42.202500 0
M  V30 END ATOM
M  V30 BEGIN BOND
M  V30 1 1 2 1
M  V30 2 1 3 2
M  V30 3 2 4 3
M  V30 4 1 5 4
M  V30 5 2 6 5
M  V30 6 1 7 3
M  V30 7 1 7 6
M  V30 8 1 8 1
M  V30 9 1 9 1
M  V30 10 1 10 1
M  V30 11 1 11 2
M  V30 12 1 12 2
M  V30 13 1 13 4
M  V30 14 1 14 5
M  V30 15 1 15 6
M  V30 END BOND
M  V30 END CTAB
M  END
$$$$
R-group 78 (19258-1)
     RDKit          3D

  0  0  0  0  0  0  0  0  0  0999 V3000
M  V30 BEGIN CTAB
M  V30 COUNTS 16 15 0 0 1
M  V30 BEGIN ATOM
M  V30 1 C 72.373400 56.649900 39.535100 0
M  V30 2 C 73.097900 57.829400 40.199200 0
M  V30 3 O 73.272900 57.658300 41.603900 0
M  V30 4 C 74.542800 57.197400 42.020900 0
M  V30 5 C 74.671500 55.740000 41.658700 0
M  V30 6 O 75.589700 55.407100 40.928700 0
M  V30 7 N 73.717100 54.926100 42.126600 0
M  V30 8 H 72.007300 56.897500 38.541600 0
M  V30 9 H 73.055100 55.815500 39.397400 0
M  V30 10 H 71.524100 56.313300 40.124400 0
M  V30 11 H 72.506300 58.735200 40.126800 0
M  V30 12 H 74.022800 58.028200 39.655600 0
M  V30 13 H 74.652300 57.323600 43.098600 0
M  V30 14 H 75.351800 57.734900 41.530400 0
M  V30 15 H 73.023900 55.358100 42.723000 0
M  V30 16 R 73.571900 53.487400 41.956600 0
M  V30 END ATOM
M  V30 BEGIN BOND
M  V30 1 1 2 1
M  V30 2 1 3 2
M  V30 3 1 4 3
M  V30 4 1 5 4
M  V30 5 2 6 5
M  V30 6 1 7 5
M  V30 7 1 8 1
M  V30 8 1 9 1
M  V30 9 1 10 1
M  V30 10 1 11 2
M  V30 11 1 12 2
M  V30 12 1 13 4
M  V30 13 1 14 4
M  V30 14 1 15 7
M  V30 15 1 16 7
M  V30 END BOND
M  V30 END CTAB
M  END
$$$$
R-group 79 (44058-4)
     RDKit          3D

  0  0  0  0  0  0  0  0  0  0999 V3000
M  V30 BEGIN CTAB
M  V30 COUNTS 20 21 0 0 1
M  V30 BEGIN ATOM
M  V30 1 C 74.146600 54.605000 42.276600 0 CFG=2
M  V30 2 C 72.872200 55.265000 41.978100 0
M  V30 3 C 73.272200 56.537600 41.193400 0 CFG=2
M  V30 4 C 74.376800 56.020500 40.302900 0
M  V30 5 C 75.159000 55.475200 41.493300 0 CFG=1
M  V30 6 C 75.372400 56.779400 42.298200 0
M  V30 7 C 74.007700 57.489800 42.123900 0 CFG=2
M  V30 8 O 73.271300 57.657900 43.303800 0
M  V30 9 H 74.336800 54.745200 43.342200 0
M  V30 10 H 72.199300 54.675100 41.362800 0
M  V30 11 H 72.351700 55.415700 42.924800 0
M  V30 12 H 72.469000 57.015300 40.637000 0
M  V30 13 H 74.899800 56.811000 39.759600 0
M  V30 14 H 74.025200 55.280400 39.586900 0
M  V30 15 H 76.071300 54.966000 41.236300 0
M  V30 16 H 75.648000 56.603600 43.337400 0
M  V30 17 H 76.170300 57.373500 41.853200 0
M  V30 18 H 74.092000 58.457600 41.647500 0
M  V30 19 H 73.156700 56.808300 43.702900 0
M  V30 20 R 73.885100 53.131800 41.986500 0
M  V30 END ATOM
M  V30 BEGIN BOND
M  V30 1 1 2 1
M  V30 2 1 3 2
M  V30 3 1 4 3
M  V30 4 1 5 1
M  V30 5 1 5 4
M  V30 6 1 6 5
M  V30 7 1 7 3
M  V30 8 1 7 6
M  V30 9 1 8 7
M  V30 10 1 1 9 CFG=1
M  V30 11 1 10 2
M  V30 12 1 11 2
M  V30 13 1 3 12 CFG=3
M  V30 14 1 13 4
M  V30 15 1 14 4
M  V30 16 1 5 15 CFG=3
M  V30 17 1 16 6
M  V30 18 1 17 6
M  V30 19 1 7 18 CFG=3
M  V30 20 1 19 8
M  V30 21 1 20 1
M  V30 END BOND
M  V30 END CTAB
M  END
$$$$
R-group 80 (39323-2)
     RDKit          3D

  0  0  0  0  0  0  0  0  0  0999 V3000
M  V30 BEGIN CTAB
M  V30 COUNTS 15 14 0 0 1
M  V30 BEGIN ATOM
M  V30 1 C 74.612100 57.491800 43.183500 0
M  V30 2 O 75.396200 56.446700 42.629800 0
M  V30 3 C 74.722300 55.542300 41.761000 0 CFG=1
M  V30 4 C 73.698800 54.754400 42.555700 0
M  V30 5 C 74.210700 56.274200 40.507700 0
M  V30 6 F 73.793000 55.520600 39.500300 0
M  V30 7 F 73.272500 57.189600 40.717600 0
M  V30 8 F 75.310300 56.858000 40.123600 0
M  V30 9 H 75.272500 58.036400 43.847000 0
M  V30 10 H 74.260100 58.187600 42.432900 0
M  V30 11 H 73.729900 57.142600 43.724500 0
M  V30 12 H 75.521600 54.861200 41.469000 0
M  V30 13 H 72.738700 55.257600 42.542600 0
M  V30 14 H 74.072100 54.807400 43.579800 0
M  V30 15 R 73.547300 53.265700 42.188700 0
M  V30 END ATOM
M  V30 BEGIN BOND
M  V30 1 1 2 1
M  V30 2 1 3 2
M  V30 3 1 4 3
M  V30 4 1 5 3
M  V30 5 1 6 5
M  V30 6 1 7 5
M  V30 7 1 8 5
M  V30 8 1 9 1
M  V30 9 1 10 1
M  V30 10 1 11 1
M  V30 11 1 3 12 CFG=3
M  V30 12 1 13 4
M  V30 13 1 14 4
M  V30 14 1 15 4
M  V30 END BOND
M  V30 END CTAB
M  END
$$$$
R-group 81 (557-1)
     RDKit          3D

  0  0  0  0  0  0  0  0  0  0999 V3000
M  V30 BEGIN CTAB
M  V30 COUNTS 15 14 0 0 1
M  V30 BEGIN ATOM
M  V30 1 C 74.311600 54.989000 42.079000 0
M  V30 2 O 74.872200 55.350900 43.110900 0
M  V30 3 N 74.152700 55.807000 41.026100 0
M  V30 4 C 74.536600 57.209900 40.972500 0
M  V30 5 C 76.072700 57.375300 41.124900 0
M  V30 6 C 73.690400 57.992400 41.992100 0
M  V30 7 H 74.251400 57.540900 39.971700 0
M  V30 8 H 76.447600 58.379700 40.919600 0
M  V30 9 H 76.403600 57.131900 42.132300 0
M  V30 10 H 76.597200 56.708200 40.442000 0
M  V30 11 H 73.670100 59.045000 41.762100 0
M  V30 12 H 72.650800 57.665600 41.978800 0
M  V30 13 H 74.059000 57.879900 43.012900 0
M  V30 14 H 73.697700 55.428200 40.209500 0
M  V30 15 R 73.784100 53.544400 41.985300 0
M  V30 END ATOM
M  V30 BEGIN BOND
M  V30 1 2 2 1
M  V30 2 1 3 1
M  V30 3 1 4 3
M  V30 4 1 5 4
M  V30 5 1 6 4
M  V30 6 1 7 4
M  V30 7 1 8 5
M  V30 8 1 9 5
M  V30 9 1 10 5
M  V30 10 1 11 6
M  V30 11 1 12 6
M  V30 12 1 13 6
M  V30 13 1 14 3
M  V30 14 1 15 1
M  V30 END BOND
M  V30 END CTAB
M  END
$$$$
R-group 82 (855-1)
     RDKit          3D

  0  0  0  0  0  0  0  0  0  0999 V3000
M  V30 BEGIN CTAB
M  V30 COUNTS 10 9 0 0 1
M  V30 BEGIN ATOM
M  V30 1 C 72.816900 56.555500 43.601600 0
M  V30 2 N 74.098000 56.341800 42.924700 0
M  V30 3 S 74.244300 55.598200 41.403200 0
M  V30 4 O 75.672100 55.658000 41.075300 0
M  V30 5 O 73.277200 56.234300 40.495300 0
M  V30 6 H 72.872300 56.458100 44.682100 0
M  V30 7 H 72.472200 57.561300 43.370400 0
M  V30 8 H 72.074600 55.811900 43.324700 0
M  V30 9 H 74.924600 56.276500 43.517400 0
M  V30 10 R 73.707700 53.838000 41.757400 0
M  V30 END ATOM
M  V30 BEGIN BOND
M  V30 1 1 2 1
M  V30 2 1 3 2
M  V30 3 2 4 3
M  V30 4 2 5 3
M  V30 5 1 6 1
M  V30 6 1 7 1
M  V30 7 1 8 1
M  V30 8 1 9 2
M  V30 9 1 10 3
M  V30 END BOND
M  V30 END CTAB
M  END
$$$$
R-group 83 (2341-1)
     RDKit          3D

  0  0  0  0  0  0  0  0  0  0999 V3000
M  V30 BEGIN CTAB
M  V30 COUNTS 13 13 0 0 1
M  V30 BEGIN ATOM
M  V30 1 C 75.694400 55.596700 44.104000 0
M  V30 2 O 75.291500 55.736000 42.758700 0
M  V30 3 C 73.965000 55.351900 42.505700 0
M  V30 4 C 73.379800 56.620600 41.919700 0
M  V30 5 C 72.872300 56.101000 43.244300 0
M  V30 6 H 76.072600 56.550800 44.460800 0
M  V30 7 H 74.908400 55.256600 44.779400 0
M  V30 8 H 76.475000 54.850000 44.135900 0
M  V30 9 H 73.977400 57.530100 41.962400 0
M  V30 10 H 72.872200 56.485100 40.974800 0
M  V30 11 H 71.910700 55.602200 43.324600 0
M  V30 12 H 73.132600 56.679100 44.124600 0
M  V30 13 R 73.801100 53.976900 41.819700 0
M  V30 END ATOM
M  V30 BEGIN BOND
M  V30 1 1 2 1
M  V30 2 1 3 2
M  V30 3 1 4 3
M  V30 4 1 5 3
M  V30 5 1 5 4
M  V30 6 1 6 1
M  V30 7 1 7 1
M  V30 8 1 8 1
M  V30 9 1 9 4
M  V30 10 1 10 4
M  V30 11 1 11 5
M  V30 12 1 12 5
M  V30 13 1 13 3
M  V30 END BOND
M  V30 END CTAB
M  END
$$$$
R-group 84 (21372-1)
     RDKit          3D

  0  0  0  0  0  0  0  0  0  0999 V3000
M  V30 BEGIN CTAB
M  V30 COUNTS 14 14 0 0 1
M  V30 BEGIN ATOM
M  V30 1 C 74.159400 54.716300 41.743900 0
M  V30 2 C 73.672300 55.697800 42.524800 0
M  V30 3 N 74.387100 56.827800 42.284300 0
M  V30 4 C 74.019100 58.068800 42.903800 0
M  V30 5 C 75.345300 56.445000 41.412800 0
M  V30 6 N 76.349200 57.258000 40.962600 0
M  V30 7 N 75.255900 55.187700 41.038500 0
M  V30 8 H 72.859600 55.663600 43.239000 0
M  V30 9 H 74.757500 58.457200 43.612100 0
M  V30 10 H 73.781300 58.794600 42.128100 0
M  V30 11 H 73.101300 57.934900 43.476200 0
M  V30 12 H 77.027600 56.934800 40.286000 0
M  V30 13 H 76.433900 58.215200 41.280200 0
M  V30 14 R 73.702000 53.312900 41.782500 0
M  V30 END ATOM
M  V30 BEGIN BOND
M  V30 1 2 2 1
M  V30 2 1 3 2
M  V30 3 1 4 3
M  V30 4 1 5 3
M  V30 5 1 6 5
M  V30 6 1 7 1
M  V30 7 2 7 5
M  V30 8 1 8 2
M  V30 9 1 9 4
M  V30 10 1 10 4
M  V30 11 1 11 4
M  V30 12 1 12 6
M  V30 13 1 13 6
M  V30 14 1 14 1
M  V30 END BOND
M  V30 END CTAB
M  END
$$$$
R-group 85 (31005-8)
     RDKit          3D

  0  0  0  0  0  0  0  0  0  0999 V3000
M  V30 BEGIN CTAB
M  V30 COUNTS 21 21 0 0 1
M  V30 BEGIN ATOM
M  V30 1 C 74.336900 55.147200 42.786400 0 CFG=1
M  V30 2 C 75.493300 55.667600 41.938500 0
M  V30 3 C 74.898100 56.554100 40.846300 0
M  V30 4 C 73.410900 56.754100 41.181700 0 CFG=2
M  V30 5 C 73.019900 58.219900 40.936100 0
M  V30 6 C 73.245600 56.195700 42.625800 0 CFG=2
M  V30 7 C 73.219300 57.303200 43.659000 0
M  V30 8 H 74.645300 55.174000 43.831600 0
M  V30 9 H 76.166000 56.260400 42.559900 0
M  V30 10 H 76.072200 54.858000 41.524700 0
M  V30 11 H 75.447600 57.495800 40.833800 0
M  V30 12 H 75.012600 56.116800 39.855000 0
M  V30 13 H 72.822000 56.160600 40.489700 0
M  V30 14 H 73.585100 58.858000 41.610600 0
M  V30 15 H 73.272200 58.503000 39.913500 0
M  V30 16 H 71.973100 58.458000 41.096100 0
M  V30 17 H 72.347600 55.655300 42.924700 0
M  V30 18 H 74.189600 57.793900 43.724700 0
M  V30 19 H 72.472200 58.057900 43.435500 0
M  V30 20 H 72.872300 56.858000 44.583700 0
M  V30 21 R 73.869700 53.681000 42.459100 0
M  V30 END ATOM
M  V30 BEGIN BOND
M  V30 1 1 2 1
M  V30 2 1 3 2
M  V30 3 1 4 3
M  V30 4 1 5 4
M  V30 5 1 6 1
M  V30 6 1 6 4
M  V30 7 1 7 6
M  V30 8 1 1 8 CFG=1
M  V30 9 1 9 2
M  V30 10 1 10 2
M  V30 11 1 11 3
M  V30 12 1 12 3
M  V30 13 1 4 13 CFG=3
M  V30 14 1 14 5
M  V30 15 1 15 5
M  V30 16 1 16 5
M  V30 17 1 6 17 CFG=3
M  V30 18 1 18 7
M  V30 19 1 19 7
M  V30 20 1 20 7
M  V30 21 1 21 1
M  V30 END BOND
M  V30 END CTAB
M  END
$$$$
R-group 86 (11405-1)
     RDKit          3D

  0  0  0  0  0  0  0  0  0  0999 V3000
M  V30 BEGIN CTAB
M  V30 COUNTS 15 15 0 0 1
M  V30 BEGIN ATOM
M  V30 1 C 73.520600 54.697000 42.784400 0
M  V30 2 N 74.156900 55.575800 41.862300 0
M  V30 3 C 73.677700 56.090400 40.722900 0
M  V30 4 N 74.534200 56.852900 40.083200 0
M  V30 5 C 75.646300 56.857600 40.923900 0
M  V30 6 C 76.809500 57.729500 40.650700 0
M  V30 7 C 75.420400 56.087900 42.022500 0
M  V30 8 H 72.499300 55.055300 42.924300 0
M  V30 9 H 74.073000 54.821800 43.722200 0
M  V30 10 H 72.686500 55.896300 40.340100 0
M  V30 11 H 77.218100 58.058000 41.596500 0
M  V30 12 H 77.626600 57.258000 40.128200 0
M  V30 13 H 76.477000 58.573300 40.055200 0
M  V30 14 H 76.035900 55.880500 42.887500 0
M  V30 15 R 73.505000 53.221600 42.328900 0
M  V30 END ATOM
M  V30 BEGIN BOND
M  V30 1 1 2 1
M  V30 2 1 3 2
M  V30 3 2 4 3
M  V30 4 1 5 4
M  V30 5 1 6 5
M  V30 6 1 7 2
M  V30 7 2 7 5
M  V30 8 1 8 1
M  V30 9 1 9 1
M  V30 10 1 10 3
M  V30 11 1 11 6
M  V30 12 1 12 6
M  V30 13 1 13 6
M  V30 14 1 14 7
M  V30 15 1 15 1
M  V30 END BOND
M  V30 END CTAB
M  END
$$$$
R-group 87 (22326-1)
     RDKit          3D

  0  0  0  0  0  0  0  0  0  0999 V3000
M  V30 BEGIN CTAB
M  V30 COUNTS 26 28 0 0 1
M  V30 BEGIN ATOM
M  V30 1 C 74.032200 54.930700 41.820600 0 CFG=2
M  V30 2 C 75.568600 55.010000 41.856400 0
M  V30 3 C 76.100300 56.436800 41.885900 0 CFG=2
M  V30 4 C 75.580500 57.118400 43.146900 0
M  V30 5 C 74.030100 57.150500 43.068400 0 CFG=1
M  V30 6 C 73.515300 57.827600 41.796800 0
M  V30 7 C 74.089400 57.108000 40.587600 0 CFG=1
M  V30 8 F 73.666900 57.649800 39.467800 0
M  V30 9 C 75.629800 57.093000 40.602300 0
M  V30 10 C 73.546200 55.696500 40.570700 0
M  V30 11 C 73.568800 55.696700 43.091200 0
M  V30 12 H 75.841300 54.558700 42.788800 0
M  V30 13 H 76.034200 54.479600 41.029800 0
M  V30 14 H 77.182300 56.457500 41.926900 0
M  V30 15 H 76.080700 58.059700 43.324700 0
M  V30 16 H 75.909300 56.559900 44.022400 0
M  V30 17 H 73.575000 57.662000 43.907700 0
M  V30 18 H 73.787400 58.858300 41.805900 0
M  V30 19 H 72.437000 57.827200 41.777700 0
M  V30 20 H 75.987500 56.525800 39.747400 0
M  V30 21 H 76.091100 58.056700 40.508100 0
M  V30 22 H 73.873300 55.251000 39.634900 0
M  V30 23 H 72.462200 55.722800 40.523200 0
M  V30 24 H 72.492300 55.651500 43.243200 0
M  V30 25 H 74.072300 55.257000 43.950400 0
M  V30 26 R 73.521000 53.449400 41.854000 0
M  V30 END ATOM
M  V30 BEGIN BOND
M  V30 1 1 2 1
M  V30 2 1 3 2
M  V30 3 1 4 3
M  V30 4 1 5 4
M  V30 5 1 6 5
M  V30 6 1 7 6
M  V30 7 1 7 8 CFG=3
M  V30 8 1 9 3
M  V30 9 1 9 7
M  V30 10 1 10 1
M  V30 11 1 10 7
M  V30 12 1 11 1
M  V30 13 1 11 5
M  V30 14 1 12 2
M  V30 15 1 13 2
M  V30 16 1 3 14 CFG=1
M  V30 17 1 15 4
M  V30 18 1 16 4
M  V30 19 1 5 17 CFG=1
M  V30 20 1 18 6
M  V30 21 1 19 6
M  V30 22 1 20 9
M  V30 23 1 21 9
M  V30 24 1 22 10
M  V30 25 1 23 10
M  V30 26 1 24 11
M  V30 27 1 25 11
M  V30 28 1 1 26 CFG=1
M  V30 END BOND
M  V30 END CTAB
M  END
$$$$
R-group 88 (39716-1)
     RDKit          3D

  0  0  0  0  0  0  0  0  0  0999 V3000
M  V30 BEGIN CTAB
M  V30 COUNTS 18 18 0 0 1
M  V30 BEGIN ATOM
M  V30 1 O 73.111700 54.434400 41.927100 0
M  V30 2 C 74.286900 55.156600 41.668400 0 CFG=2
M  V30 3 C 74.825100 55.663100 42.972500 0
M  V30 4 N 75.693300 56.649500 42.469800 0
M  V30 5 C 76.361600 57.409300 43.444900 0
M  V30 6 C 74.934700 57.443400 41.576100 0
M  V30 7 C 74.124200 56.418600 40.817700 0 CFG=1
M  V30 8 F 74.736200 56.304000 39.654200 0
M  V30 9 H 75.100700 54.574400 41.245500 0
M  V30 10 H 74.021400 56.090200 43.573600 0
M  V30 11 H 75.365200 54.932400 43.561900 0
M  V30 12 H 76.870000 56.754200 44.128300 0
M  V30 13 H 77.093000 58.056900 42.960700 0
M  V30 14 H 75.677200 58.025600 44.031000 0
M  V30 15 H 75.672700 58.019800 40.995700 0
M  V30 16 H 74.250300 58.098500 42.120600 0
M  V30 17 H 73.101200 56.734700 40.634500 0
M  V30 18 R 73.206600 53.040300 41.756300 0
M  V30 END ATOM
M  V30 BEGIN BOND
M  V30 1 1 2 1
M  V30 2 1 3 2
M  V30 3 1 4 3
M  V30 4 1 5 4
M  V30 5 1 6 4
M  V30 6 1 7 2
M  V30 7 1 7 6
M  V30 8 1 8 7
M  V30 9 1 2 9 CFG=3
M  V30 10 1 10 3
M  V30 11 1 11 3
M  V30 12 1 12 5
M  V30 13 1 13 5
M  V30 14 1 14 5
M  V30 15 1 15 6
M  V30 16 1 16 6
M  V30 17 1 7 17 CFG=3
M  V30 18 1 18 1
M  V30 END BOND
M  V30 END CTAB
M  END
$$$$
R-group 89 (2259-2)
     RDKit          3D

  0  0  0  0  0  0  0  0  0  0999 V3000
M  V30 BEGIN CTAB
M  V30 COUNTS 16 16 0 0 1
M  V30 BEGIN ATOM
M  V30 1 C 73.557000 54.688800 41.674300 0 CFG=1
M  V30 2 C 73.084100 55.443900 42.922200 0
M  V30 3 C 73.160200 56.929900 42.701600 0
M  V30 4 N 74.473800 57.257900 42.242700 0
M  V30 5 C 75.286900 56.549700 41.471500 0
M  V30 6 O 76.247400 57.066400 40.924900 0
M  V30 7 C 75.024200 55.067500 41.371400 0
M  V30 8 H 72.935700 55.042400 40.847200 0
M  V30 9 H 72.072300 55.176600 43.235200 0
M  V30 10 H 73.788600 55.257600 43.724800 0
M  V30 11 H 72.927100 57.477500 43.615400 0
M  V30 12 H 72.473800 57.259800 41.925800 0
M  V30 13 H 75.680700 54.651200 42.120400 0
M  V30 14 H 75.390700 54.737200 40.406500 0
M  V30 15 H 74.736000 58.221400 42.359500 0
M  V30 16 R 73.348700 53.168100 41.816300 0
M  V30 END ATOM
M  V30 BEGIN BOND
M  V30 1 1 2 1
M  V30 2 1 3 2
M  V30 3 1 4 3
M  V30 4 1 5 4
M  V30 5 2 6 5
M  V30 6 1 7 1
M  V30 7 1 7 5
M  V30 8 1 1 8 CFG=3
M  V30 9 1 9 2
M  V30 10 1 10 2
M  V30 11 1 11 3
M  V30 12 1 12 3
M  V30 13 1 13 7
M  V30 14 1 14 7
M  V30 15 1 15 4
M  V30 16 1 16 1
M  V30 END BOND
M  V30 END CTAB
M  END
$$$$
R-group 90 (29312-2)
     RDKit          3D

  0  0  0  0  0  0  0  0  0  0999 V3000
M  V30 BEGIN CTAB
M  V30 COUNTS 22 22 0 0 1
M  V30 BEGIN ATOM
M  V30 1 C 73.997400 54.801200 41.666900 0 CFG=1
M  V30 2 C 73.412400 55.452300 40.411200 0
M  V30 3 C 73.908200 56.872000 40.298900 0 CFG=1
M  V30 4 C 73.524800 57.383800 38.937900 0
M  V30 5 C 73.325300 57.701600 41.431500 0
M  V30 6 C 73.725300 57.103900 42.776500 0 CFG=1
M  V30 7 O 72.872200 57.657900 43.724000 0
M  V30 8 C 73.533400 55.592500 42.890700 0
M  V30 9 H 75.083500 54.890300 41.593100 0
M  V30 10 H 73.705300 54.958500 39.491500 0
M  V30 11 H 72.325800 55.411600 40.422900 0
M  V30 12 H 74.999900 56.896500 40.368100 0
M  V30 13 H 72.461500 57.257900 38.725300 0
M  V30 14 H 73.764500 58.448700 38.924700 0
M  V30 15 H 74.102400 56.847900 38.184100 0
M  V30 16 H 73.670700 58.727600 41.391800 0
M  V30 17 H 72.247500 57.767800 41.315100 0
M  V30 18 H 74.760600 57.367700 43.002000 0
M  V30 19 H 72.473400 55.376200 43.034600 0
M  V30 20 H 74.072600 55.259100 43.774800 0
M  V30 21 H 72.156500 57.055400 43.867600 0
M  V30 22 R 73.634200 53.307000 41.817800 0
M  V30 END ATOM
M  V30 BEGIN BOND
M  V30 1 1 2 1
M  V30 2 1 3 2
M  V30 3 1 4 3
M  V30 4 1 5 3
M  V30 5 1 6 5
M  V30 6 1 7 6
M  V30 7 1 8 1
M  V30 8 1 8 6
M  V30 9 1 1 9 CFG=3
M  V30 10 1 10 2
M  V30 11 1 11 2
M  V30 12 1 3 12 CFG=3
M  V30 13 1 13 4
M  V30 14 1 14 4
M  V30 15 1 15 4
M  V30 16 1 16 5
M  V30 17 1 17 5
M  V30 18 1 6 18 CFG=1
M  V30 19 1 19 8
M  V30 20 1 20 8
M  V30 21 1 21 7
M  V30 22 1 22 1
M  V30 END BOND
M  V30 END CTAB
M  END
$$$$
R-group 91 (5045-1)
     RDKit          3D

  0  0  0  0  0  0  0  0  0  0999 V3000
M  V30 BEGIN CTAB
M  V30 COUNTS 23 22 0 0 1
M  V30 BEGIN ATOM
M  V30 1 C 77.024700 58.058100 40.437900 0
M  V30 2 C 76.548800 56.703800 40.834500 0
M  V30 3 C 75.060900 56.617400 40.955000 0
M  V30 4 C 74.822500 55.191500 41.409400 0
M  V30 5 C 73.372900 54.793900 41.658800 0
M  V30 6 C 72.939000 55.575300 42.924700 0
M  V30 7 C 72.498800 55.248400 40.456600 0
M  V30 8 H 78.067600 58.032800 40.123700 0
M  V30 9 H 76.872100 58.670500 41.324400 0
M  V30 10 H 76.472300 58.458500 39.599700 0
M  V30 11 H 76.886200 55.957000 40.125100 0
M  V30 12 H 76.981300 56.463000 41.803000 0
M  V30 13 H 74.694000 57.353000 41.671900 0
M  V30 14 H 74.603400 56.826300 39.987100 0
M  V30 15 H 75.281500 54.533000 40.679600 0
M  V30 16 H 75.393800 55.032400 42.324700 0
M  V30 17 H 71.972700 55.258200 43.324700 0
M  V30 18 H 73.673800 55.487200 43.723900 0
M  V30 19 H 72.878600 56.645600 42.732200 0
M  V30 20 H 71.481000 54.858000 40.524700 0
M  V30 21 H 72.446500 56.335900 40.392100 0
M  V30 22 H 72.901900 54.927200 39.497500 0
M  V30 23 R 73.307600 53.233100 41.855800 0
M  V30 END ATOM
M  V30 BEGIN BOND
M  V30 1 1 2 1
M  V30 2 1 3 2
M  V30 3 1 4 3
M  V30 4 1 5 4
M  V30 5 1 6 5
M  V30 6 1 7 5
M  V30 7 1 8 1
M  V30 8 1 9 1
M  V30 9 1 10 1
M  V30 10 1 11 2
M  V30 11 1 12 2
M  V30 12 1 13 3
M  V30 13 1 14 3
M  V30 14 1 15 4
M  V30 15 1 16 4
M  V30 16 1 17 6
M  V30 17 1 18 6
M  V30 18 1 19 6
M  V30 19 1 20 7
M  V30 20 1 21 7
M  V30 21 1 22 7
M  V30 22 1 23 5
M  V30 END BOND
M  V30 END CTAB
M  END
$$$$
R-group 92 (3305-2)
     RDKit          3D

  0  0  0  0  0  0  0  0  0  0999 V3000
M  V30 BEGIN CTAB
M  V30 COUNTS 13 13 0 0 1
M  V30 BEGIN ATOM
M  V30 1 C 74.000400 55.052400 42.314600 0 CFG=1
M  V30 2 C 75.474600 55.478700 42.145000 0
M  V30 3 N 75.529200 56.332500 40.982000 0
M  V30 4 C 74.331200 56.458000 40.442300 0
M  V30 5 O 74.072200 56.858100 39.324700 0
M  V30 6 C 73.272200 55.999200 41.379400 0
M  V30 7 H 73.698400 55.300000 43.328400 0
M  V30 8 H 75.876300 55.983100 43.024900 0
M  V30 9 H 76.072200 54.620400 41.909700 0
M  V30 10 H 72.472800 55.549000 40.795800 0
M  V30 11 H 72.877400 56.865500 41.913200 0
M  V30 12 H 76.386600 56.550200 40.494400 0
M  V30 13 R 73.691300 53.534000 42.088300 0
M  V30 END ATOM
M  V30 BEGIN BOND
M  V30 1 1 2 1
M  V30 2 1 3 2
M  V30 3 1 4 3
M  V30 4 2 5 4
M  V30 5 1 6 1
M  V30 6 1 6 4
M  V30 7 1 1 7 CFG=1
M  V30 8 1 8 2
M  V30 9 1 9 2
M  V30 10 1 10 6
M  V30 11 1 11 6
M  V30 12 1 12 3
M  V30 13 1 13 1
M  V30 END BOND
M  V30 END CTAB
M  END
$$$$
R-group 93 (15348-2)
     RDKit          3D

  0  0  0  0  0  0  0  0  0  0999 V3000
M  V30 BEGIN CTAB
M  V30 COUNTS 12 11 0 0 1
M  V30 BEGIN ATOM
M  V30 1 C 74.343800 55.416100 43.004100 0 CFG=1
M  V30 2 C 75.779000 55.960800 42.852500 0
M  V30 3 C 73.341300 56.533100 42.718400 0
M  V30 4 C 73.291700 56.945600 41.307300 0
M  V30 5 N 73.272000 57.257600 40.193800 0
M  V30 6 H 74.228500 55.258600 44.075200 0
M  V30 7 H 76.249000 55.658800 41.918100 0
M  V30 8 H 75.793400 57.050500 42.868800 0
M  V30 9 H 76.406600 55.657700 43.695800 0
M  V30 10 H 73.573300 57.420900 43.308400 0
M  V30 11 H 72.383100 56.187700 43.071400 0
M  V30 12 R 74.018200 54.044400 42.285500 0
M  V30 END ATOM
M  V30 BEGIN BOND
M  V30 1 1 2 1
M  V30 2 1 3 1
M  V30 3 1 4 3
M  V30 4 3 5 4
M  V30 5 1 1 6 CFG=1
M  V30 6 1 7 2
M  V30 7 1 8 2
M  V30 8 1 9 2
M  V30 9 1 10 3
M  V30 10 1 11 3
M  V30 11 1 12 1
M  V30 END BOND
M  V30 END CTAB
M  END
$$$$
R-group 94 (20770-1)
     RDKit          3D

  0  0  0  0  0  0  0  0  0  0999 V3000
M  V30 BEGIN CTAB
M  V30 COUNTS 19 19 0 0 1
M  V30 BEGIN ATOM
M  V30 1 C 72.614200 58.715300 40.987400 0
M  V30 2 C 73.248600 57.731700 41.980200 0
M  V30 3 O 73.672200 56.489800 41.410400 0
M  V30 4 C 74.093900 55.514700 42.364100 0 CFG=2
M  V30 5 C 75.588200 55.735800 42.581500 0
M  V30 6 C 76.149800 57.021600 43.168000 0
M  V30 7 C 76.272300 55.706500 43.931800 0
M  V30 8 H 72.475900 59.698600 41.459100 0
M  V30 9 H 73.242200 58.849400 40.124700 0
M  V30 10 H 71.667800 58.420300 40.565600 0
M  V30 11 H 72.527800 57.551600 42.764200 0
M  V30 12 H 74.067900 58.269100 42.437000 0
M  V30 13 H 73.633600 55.729200 43.327700 0
M  V30 14 H 76.144100 55.431300 41.716300 0
M  V30 15 H 76.932200 57.451200 42.540400 0
M  V30 16 H 75.523300 57.743500 43.705500 0
M  V30 17 H 75.672200 55.637400 44.839300 0
M  V30 18 H 77.297000 55.387400 44.125100 0
M  V30 19 R 73.662900 54.049600 41.948400 0
M  V30 END ATOM
M  V30 BEGIN BOND
M  V30 1 1 2 1
M  V30 2 1 3 2
M  V30 3 1 4 3
M  V30 4 1 5 4
M  V30 5 1 6 5
M  V30 6 1 7 5
M  V30 7 1 7 6
M  V30 8 1 8 1
M  V30 9 1 9 1
M  V30 10 1 10 1
M  V30 11 1 11 2
M  V30 12 1 12 2
M  V30 13 1 4 13 CFG=1
M  V30 14 1 14 5
M  V30 15 1 15 6
M  V30 16 1 16 6
M  V30 17 1 17 7
M  V30 18 1 18 7
M  V30 19 1 19 4
M  V30 END BOND
M  V30 END CTAB
M  END
$$$$
R-group 95 (39155-2)
     RDKit          3D

  0  0  0  0  0  0  0  0  0  0999 V3000
M  V30 BEGIN CTAB
M  V30 COUNTS 17 16 0 0 1
M  V30 BEGIN ATOM
M  V30 1 O 73.884000 54.848800 41.826700 0
M  V30 2 C 73.619300 55.590600 42.992200 0
M  V30 3 C 74.229200 56.954700 42.822100 0 CFG=1
M  V30 4 O 75.645100 56.803000 42.924600 0
M  V30 5 C 73.983600 57.605400 41.477500 0
M  V30 6 C 72.655300 58.159700 40.981900 0
M  V30 7 O 72.072200 59.252000 41.725100 0
M  V30 8 H 72.543600 55.662000 43.154400 0
M  V30 9 H 74.074100 55.152700 43.873300 0
M  V30 10 H 73.875300 57.609400 43.622000 0
M  V30 11 H 74.472200 58.471300 41.724600 0
M  V30 12 H 74.519500 57.094100 40.676000 0
M  V30 13 H 72.872400 58.589800 40.012000 0
M  V30 14 H 72.072300 57.278800 40.777300 0
M  V30 15 H 76.031600 57.645100 43.114600 0
M  V30 16 H 71.125700 59.239600 41.642500 0
M  V30 17 R 73.574300 53.481400 41.942900 0
M  V30 END ATOM
M  V30 BEGIN BOND
M  V30 1 1 2 1
M  V30 2 1 3 2
M  V30 3 1 4 3
M  V30 4 1 5 3
M  V30 5 1 6 5
M  V30 6 1 7 6
M  V30 7 1 8 2
M  V30 8 1 9 2
M  V30 9 1 3 10 CFG=1
M  V30 10 1 11 5
M  V30 11 1 12 5
M  V30 12 1 13 6
M  V30 13 1 14 6
M  V30 14 1 15 4
M  V30 15 1 16 7
M  V30 16 1 17 1
M  V30 END BOND
M  V30 END CTAB
M  END
$$$$
R-group 96 (24929-1)
     RDKit          3D

  0  0  0  0  0  0  0  0  0  0999 V3000
M  V30 BEGIN CTAB
M  V30 COUNTS 9 8 0 0 1
M  V30 BEGIN ATOM
M  V30 1 C 74.201900 55.426900 43.011100 0 CFG=1
M  V30 2 O 75.367500 56.062400 42.529500 0
M  V30 3 C 73.055600 56.442000 42.934300 0
M  V30 4 F 73.275100 57.494200 43.721100 0
M  V30 5 F 72.872800 56.869200 41.682600 0
M  V30 6 H 74.375000 55.258300 44.072200 0
M  V30 7 H 72.141300 55.989000 43.325100 0
M  V30 8 H 75.431300 56.911000 42.940200 0
M  V30 9 R 73.940500 54.054300 42.294000 0
M  V30 END ATOM
M  V30 BEGIN BOND
M  V30 1 1 2 1
M  V30 2 1 3 1
M  V30 3 1 4 3
M  V30 4 1 5 3
M  V30 5 1 1 6 CFG=1
M  V30 6 1 7 3
M  V30 7 1 8 2
M  V30 8 1 9 1
M  V30 END BOND
M  V30 END CTAB
M  END
$$$$
R-group 97 (6930-1)
     RDKit          3D

  0  0  0  0  0  0  0  0  0  0999 V3000
M  V30 BEGIN CTAB
M  V30 COUNTS 11 11 0 0 1
M  V30 BEGIN ATOM
M  V30 1 C 73.965400 54.679000 41.836100 0
M  V30 2 C 73.533200 55.440700 40.805100 0
M  V30 3 C 73.817600 56.853500 40.789100 0
M  V30 4 O 73.272200 57.648400 40.048700 0
M  V30 5 N 74.682100 57.257900 41.724300 0
M  V30 6 C 75.260700 56.431500 42.667300 0
M  V30 7 N 74.872300 55.207200 42.768600 0
M  V30 8 H 72.865500 55.073900 40.044400 0
M  V30 9 H 76.010900 56.900600 43.306400 0
M  V30 10 H 74.872200 58.247600 41.753900 0
M  V30 11 R 73.580800 53.214100 41.956900 0
M  V30 END ATOM
M  V30 BEGIN BOND
M  V30 1 2 2 1
M  V30 2 1 3 2
M  V30 3 2 4 3
M  V30 4 1 5 3
M  V30 5 1 6 5
M  V30 6 1 7 1
M  V30 7 2 7 6
M  V30 8 1 8 2
M  V30 9 1 9 6
M  V30 10 1 10 5
M  V30 11 1 11 1
M  V30 END BOND
M  V30 END CTAB
M  END
$$$$
R-group 98 (124-1)
     RDKit          3D

  0  0  0  0  0  0  0  0  0  0999 V3000
M  V30 BEGIN CTAB
M  V30 COUNTS 20 20 0 0 1
M  V30 BEGIN ATOM
M  V30 1 O 74.103200 54.414200 42.090900 0
M  V30 2 C 73.030900 55.263300 41.924700 0
M  V30 3 C 73.414900 56.722100 41.656600 0 CFG=1
M  V30 4 C 74.057900 57.395000 42.862800 0
M  V30 5 C 75.490000 56.903800 43.104100 0
M  V30 6 C 76.294500 57.027200 41.818700 0
M  V30 7 C 75.576700 56.426900 40.614100 0
M  V30 8 O 74.222200 56.858100 40.493300 0
M  V30 9 H 72.471600 54.942100 41.057000 0
M  V30 10 H 72.439500 55.200600 42.843800 0
M  V30 11 H 72.474900 57.261600 41.444500 0
M  V30 12 H 74.072100 58.455100 42.667300 0
M  V30 13 H 73.422600 57.241900 43.725800 0
M  V30 14 H 75.970400 57.484200 43.891600 0
M  V30 15 H 75.495500 55.868500 43.449100 0
M  V30 16 H 76.513800 58.060200 41.598500 0
M  V30 17 H 77.261400 56.563800 41.948700 0
M  V30 18 H 76.086400 56.766200 39.724800 0
M  V30 19 H 75.679400 55.349900 40.624700 0
M  V30 20 R 73.679100 53.082500 42.138300 0
M  V30 END ATOM
M  V30 BEGIN BOND
M  V30 1 1 2 1
M  V30 2 1 3 2
M  V30 3 1 4 3
M  V30 4 1 5 4
M  V30 5 1 6 5
M  V30 6 1 7 6
M  V30 7 1 8 3
M  V30 8 1 8 7
M  V30 9 1 9 2
M  V30 10 1 10 2
M  V30 11 1 3 11 CFG=3
M  V30 12 1 12 4
M  V30 13 1 13 4
M  V30 14 1 14 5
M  V30 15 1 15 5
M  V30 16 1 16 6
M  V30 17 1 17 6
M  V30 18 1 18 7
M  V30 19 1 19 7
M  V30 20 1 20 1
M  V30 END BOND
M  V30 END CTAB
M  END
$$$$
R-group 99 (27151-1)
     RDKit          3D

  0  0  0  0  0  0  0  0  0  0999 V3000
M  V30 BEGIN CTAB
M  V30 COUNTS 7 6 0 0 1
M  V30 BEGIN ATOM
M  V30 1 C 73.635400 55.008700 42.491100 0
M  V30 2 C 73.722200 56.010700 41.416300 0
M  V30 3 N 73.785400 56.797300 40.569500 0
M  V30 4 C 74.772900 55.173100 43.404900 0
M  V30 5 N 75.672200 55.258000 44.124700 0
M  V30 6 H 72.749100 55.300700 43.051200 0
M  V30 7 R 73.456900 53.525300 42.031100 0
M  V30 END ATOM
M  V30 BEGIN BOND
M  V30 1 1 2 1
M  V30 2 3 3 2
M  V30 3 1 4 1
M  V30 4 3 5 4
M  V30 5 1 6 1
M  V30 6 1 7 1
M  V30 END BOND
M  V30 END CTAB
M  END
$$$$
R-group 100 (4000-2)
     RDKit          3D

  0  0  0  0  0  0  0  0  0  0999 V3000
M  V30 BEGIN CTAB
M  V30 COUNTS 12 11 0 0 1
M  V30 BEGIN ATOM
M  V30 1 C 73.793400 55.416000 41.898900 0 CFG=2
M  V30 2 C 73.241700 56.257700 40.728200 0
M  V30 3 C 75.257700 55.877700 42.068900 0
M  V30 4 N 75.671000 56.071100 43.325000 0
M  V30 5 O 75.974900 56.138900 41.116200 0
M  V30 6 H 73.257300 55.734800 42.796700 0
M  V30 7 H 73.388200 57.320800 40.926500 0
M  V30 8 H 73.738200 56.008600 39.777800 0
M  V30 9 H 72.171900 56.131500 40.520100 0
M  V30 10 H 75.053000 55.866100 44.100900 0
M  V30 11 H 76.521300 56.570000 43.494700 0
M  V30 12 R 73.539500 53.866300 41.771900 0
M  V30 END ATOM
M  V30 BEGIN BOND
M  V30 1 1 2 1
M  V30 2 1 3 1
M  V30 3 1 4 3
M  V30 4 2 5 3
M  V30 5 1 1 6 CFG=1
M  V30 6 1 7 2
M  V30 7 1 8 2
M  V30 8 1 9 2
M  V30 9 1 10 4
M  V30 10 1 11 4
M  V30 11 1 12 1
M  V30 END BOND
M  V30 END CTAB
M  END
$$$$
R-group 101 (19114-2)
     RDKit          3D

  0  0  0  0  0  0  0  0  0  0999 V3000
M  V30 BEGIN CTAB
M  V30 COUNTS 11 10 0 0 1
M  V30 BEGIN ATOM
M  V30 1 C 73.457600 54.800600 41.821600 0
M  V30 2 F 72.773200 55.258000 40.775000 0
M  V30 3 F 72.869700 55.302300 42.906600 0
M  V30 4 C 74.879500 55.393100 41.773600 0
M  V30 5 F 75.426900 55.359500 42.989400 0
M  V30 6 F 75.672300 54.717400 40.954600 0
M  V30 7 C 74.893900 56.824300 41.262200 0
M  V30 8 F 74.492700 56.858000 39.988000 0
M  V30 9 F 74.071800 57.570400 42.006100 0
M  V30 10 F 76.150300 57.258700 41.326500 0
M  V30 11 R 73.337200 53.258600 41.855800 0
M  V30 END ATOM
M  V30 BEGIN BOND
M  V30 1 1 2 1
M  V30 2 1 3 1
M  V30 3 1 4 1
M  V30 4 1 5 4
M  V30 5 1 6 4
M  V30 6 1 7 4
M  V30 7 1 8 7
M  V30 8 1 9 7
M  V30 9 1 10 7
M  V30 10 1 11 1
M  V30 END BOND
M  V30 END CTAB
M  END
$$$$
R-group 102 (7014-1)
     RDKit          3D

  0  0  0  0  0  0  0  0  0  0999 V3000
M  V30 BEGIN CTAB
M  V30 COUNTS 13 13 0 0 1
M  V30 BEGIN ATOM
M  V30 1 C 73.676300 55.500300 41.822200 0
M  V30 2 C 75.039400 55.988000 41.769900 0
M  V30 3 N 76.072500 56.458100 41.720000 0
M  V30 4 C 73.024000 56.478200 40.792400 0
M  V30 5 C 72.935100 57.525300 41.923000 0
M  V30 6 C 73.009400 56.347400 42.924400 0
M  V30 7 H 72.072500 56.187700 40.353500 0
M  V30 8 H 73.682600 56.785800 39.977000 0
M  V30 9 H 72.072300 58.171600 41.948900 0
M  V30 10 H 73.818100 58.165200 41.968800 0
M  V30 11 H 73.691200 56.565000 43.724700 0
M  V30 12 H 72.072600 55.955300 43.324700 0
M  V30 13 R 73.513600 53.934200 41.754500 0
M  V30 END ATOM
M  V30 BEGIN BOND
M  V30 1 1 2 1
M  V30 2 3 3 2
M  V30 3 1 4 1
M  V30 4 1 5 4
M  V30 5 1 6 1
M  V30 6 1 6 5
M  V30 7 1 7 4
M  V30 8 1 8 4
M  V30 9 1 9 5
M  V30 10 1 10 5
M  V30 11 1 11 6
M  V30 12 1 12 6
M  V30 13 1 13 1
M  V30 END BOND
M  V30 END CTAB
M  END
$$$$
R-group 103 (14789-2)
     RDKit          3D

  0  0  0  0  0  0  0  0  0  0999 V3000
M  V30 BEGIN CTAB
M  V30 COUNTS 15 15 0 0 1
M  V30 BEGIN ATOM
M  V30 1 N 73.835700 55.248500 42.180400 0
M  V30 2 C 73.151900 56.058000 43.194400 0
M  V30 3 C 73.532100 57.508300 42.853400 0 CFG=2
M  V30 4 C 72.477100 58.445400 42.235700 0
M  V30 5 N 74.538700 57.257000 41.869200 0
M  V30 6 C 74.764700 55.998400 41.575800 0
M  V30 7 O 75.672100 55.657600 40.843700 0
M  V30 8 H 72.080300 55.867900 43.324700 0
M  V30 9 H 73.672300 55.800400 44.118500 0
M  V30 10 H 73.973700 57.993900 43.724500 0
M  V30 11 H 71.672700 58.667300 42.922600 0
M  V30 12 H 72.895700 59.414100 41.986200 0
M  V30 13 H 72.073600 58.056700 41.303300 0
M  V30 14 H 75.119800 57.999100 41.509000 0
M  V30 15 R 73.599600 53.795300 42.061600 0
M  V30 END ATOM
M  V30 BEGIN BOND
M  V30 1 1 2 1
M  V30 2 1 3 2
M  V30 3 1 4 3
M  V30 4 1 5 3
M  V30 5 1 6 1
M  V30 6 1 6 5
M  V30 7 2 7 6
M  V30 8 1 8 2
M  V30 9 1 9 2
M  V30 10 1 3 10 CFG=1
M  V30 11 1 11 4
M  V30 12 1 12 4
M  V30 13 1 13 4
M  V30 14 1 14 5
M  V30 15 1 15 1
M  V30 END BOND
M  V30 END CTAB
M  END
$$$$
R-group 104 (27910-1)
     RDKit          3D

  0  0  0  0  0  0  0  0  0  0999 V3000
M  V30 BEGIN CTAB
M  V30 COUNTS 15 14 0 0 1
M  V30 BEGIN ATOM
M  V30 1 C 74.256500 55.073000 41.980700 0
M  V30 2 O 75.073700 55.489500 41.166200 0
M  V30 3 N 73.672300 55.823200 42.913000 0
M  V30 4 C 73.532600 57.257400 43.033500 0
M  V30 5 C 73.596300 58.047100 41.731000 0
M  V30 6 C 72.722000 57.687800 40.521100 0
M  V30 7 F 73.248400 59.258000 42.124200 0
M  V30 8 F 74.856200 58.035700 41.329800 0
M  V30 9 H 72.576600 57.438400 43.525700 0
M  V30 10 H 74.290800 57.652400 43.710800 0
M  V30 11 H 73.240300 57.956800 39.592900 0
M  V30 12 H 72.472700 56.630600 40.449900 0
M  V30 13 H 71.807700 58.278100 40.524700 0
M  V30 14 H 73.120500 55.302200 43.593500 0
M  V30 15 R 73.791500 53.613500 41.970900 0
M  V30 END ATOM
M  V30 BEGIN BOND
M  V30 1 2 2 1
M  V30 2 1 3 1
M  V30 3 1 4 3
M  V30 4 1 5 4
M  V30 5 1 6 5
M  V30 6 1 7 5
M  V30 7 1 8 5
M  V30 8 1 9 4
M  V30 9 1 10 4
M  V30 10 1 11 6
M  V30 11 1 12 6
M  V30 12 1 13 6
M  V30 13 1 14 3
M  V30 14 1 15 1
M  V30 END BOND
M  V30 END CTAB
M  END
$$$$
R-group 105 (16192-1)
     RDKit          3D

  0  0  0  0  0  0  0  0  0  0999 V3000
M  V30 BEGIN CTAB
M  V30 COUNTS 10 9 0 0 1
M  V30 BEGIN ATOM
M  V30 1 O 74.548800 55.110700 41.475600 0
M  V30 2 C 73.808900 56.144800 40.830600 0 CFG=2
M  V30 3 C 74.538600 56.657900 39.588100 0
M  V30 4 C 73.532600 57.218100 41.782300 0
M  V30 5 N 73.272300 58.055000 42.524800 0
M  V30 6 H 72.820700 55.811700 40.524700 0
M  V30 7 H 74.083700 57.580300 39.225000 0
M  V30 8 H 75.589200 56.859900 39.798600 0
M  V30 9 H 74.472600 55.934600 38.776300 0
M  V30 10 R 73.845100 53.905500 41.797100 0
M  V30 END ATOM
M  V30 BEGIN BOND
M  V30 1 1 2 1
M  V30 2 1 3 2
M  V30 3 1 4 2
M  V30 4 3 5 4
M  V30 5 1 2 6 CFG=3
M  V30 6 1 7 3
M  V30 7 1 8 3
M  V30 8 1 9 3
M  V30 9 1 10 1
M  V30 END BOND
M  V30 END CTAB
M  END
$$$$
R-group 106 (21653-1)
     RDKit          3D

  0  0  0  0  0  0  0  0  0  0999 V3000
M  V30 BEGIN CTAB
M  V30 COUNTS 14 14 0 0 1
M  V30 BEGIN ATOM
M  V30 1 N 73.643500 54.752200 42.029500 0
M  V30 2 C 74.525200 55.270800 41.169400 0
M  V30 3 O 75.272300 54.558800 40.524900 0
M  V30 4 C 74.576700 56.736200 40.991700 0
M  V30 5 C 73.679600 57.465400 41.835300 0
M  V30 6 N 72.962500 58.058000 42.510500 0
M  V30 7 C 75.925500 57.291200 40.585600 0
M  V30 8 C 74.785400 57.227600 39.579500 0
M  V30 9 H 76.752200 56.604400 40.417500 0
M  V30 10 H 76.233400 58.208400 41.077100 0
M  V30 11 H 74.117000 58.041800 39.324600 0
M  V30 12 H 74.873400 56.483200 38.790300 0
M  V30 13 H 73.080300 55.364900 42.605200 0
M  V30 14 R 73.397000 53.326600 42.189300 0
M  V30 END ATOM
M  V30 BEGIN BOND
M  V30 1 1 2 1
M  V30 2 2 3 2
M  V30 3 1 4 2
M  V30 4 1 5 4
M  V30 5 3 6 5
M  V30 6 1 7 4
M  V30 7 1 8 4
M  V30 8 1 8 7
M  V30 9 1 9 7
M  V30 10 1 10 7
M  V30 11 1 11 8
M  V30 12 1 12 8
M  V30 13 1 13 1
M  V30 14 1 14 1
M  V30 END BOND
M  V30 END CTAB
M  END
$$$$
R-group 107 (2259-1)
     RDKit          3D

  0  0  0  0  0  0  0  0  0  0999 V3000
M  V30 BEGIN CTAB
M  V30 COUNTS 16 16 0 0 1
M  V30 BEGIN ATOM
M  V30 1 C 73.568300 54.642600 41.861000 0 CFG=2
M  V30 2 C 72.875800 55.399900 40.701300 0
M  V30 3 C 72.991600 56.905500 40.965000 0
M  V30 4 N 74.332600 57.258000 41.324100 0
M  V30 5 C 75.345100 56.483100 41.659700 0
M  V30 6 O 76.471800 56.942000 41.725600 0
M  V30 7 C 75.068900 55.035300 41.952700 0
M  V30 8 H 73.111000 54.982300 42.791900 0
M  V30 9 H 73.387700 55.203900 39.761100 0
M  V30 10 H 71.846400 55.090200 40.525100 0
M  V30 11 H 72.472100 57.264600 41.843800 0
M  V30 12 H 72.661000 57.490500 40.109400 0
M  V30 13 H 75.471900 54.846300 42.944500 0
M  V30 14 H 75.672000 54.474500 41.246700 0
M  V30 15 H 74.559900 58.236600 41.226900 0
M  V30 16 R 73.383600 53.107800 41.831700 0
M  V30 END ATOM
M  V30 BEGIN BOND
M  V30 1 1 2 1
M  V30 2 1 3 2
M  V30 3 1 4 3
M  V30 4 1 5 4
M  V30 5 2 6 5
M  V30 6 1 7 1
M  V30 7 1 7 5
M  V30 8 1 1 8 CFG=1
M  V30 9 1 9 2
M  V30 10 1 10 2
M  V30 11 1 11 3
M  V30 12 1 12 3
M  V30 13 1 13 7
M  V30 14 1 14 7
M  V30 15 1 15 4
M  V30 16 1 16 1
M  V30 END BOND
M  V30 END CTAB
M  END
$$$$
R-group 108 (7677-1)
     RDKit          3D

  0  0  0  0  0  0  0  0  0  0999 V3000
M  V30 BEGIN CTAB
M  V30 COUNTS 19 19 0 0 1
M  V30 BEGIN ATOM
M  V30 1 O 73.511800 54.729500 42.011400 0
M  V30 2 C 74.667800 55.556500 41.876200 0
M  V30 3 C 74.580900 56.509300 40.663500 0
M  V30 4 C 73.271600 57.308300 40.677900 0
M  V30 5 C 73.097400 58.027800 42.020100 0
M  V30 6 F 74.072200 58.857800 42.124800 0
M  V30 7 F 71.964200 58.721400 42.071500 0
M  V30 8 C 73.276700 57.124600 43.242500 0
M  V30 9 C 74.612600 56.351700 43.174700 0
M  V30 10 H 75.598200 54.991800 41.839500 0
M  V30 11 H 75.428600 57.197300 40.701600 0
M  V30 12 H 74.683300 56.000500 39.711400 0
M  V30 13 H 73.271700 58.032000 39.862000 0
M  V30 14 H 72.441000 56.633600 40.490900 0
M  V30 15 H 73.221700 57.747700 44.124500 0
M  V30 16 H 72.466600 56.410000 43.325200 0
M  V30 17 H 74.697500 55.652500 44.008400 0
M  V30 18 H 75.460200 57.036900 43.245300 0
M  V30 19 R 73.576100 53.362000 41.680900 0
M  V30 END ATOM
M  V30 BEGIN BOND
M  V30 1 1 2 1
M  V30 2 1 3 2
M  V30 3 1 4 3
M  V30 4 1 5 4
M  V30 5 1 6 5
M  V30 6 1 7 5
M  V30 7 1 8 5
M  V30 8 1 9 2
M  V30 9 1 9 8
M  V30 10 1 10 2
M  V30 11 1 11 3
M  V30 12 1 12 3
M  V30 13 1 13 4
M  V30 14 1 14 4
M  V30 15 1 15 8
M  V30 16 1 16 8
M  V30 17 1 17 9
M  V30 18 1 18 9
M  V30 19 1 19 1
M  V30 END BOND
M  V30 END CTAB
M  END
$$$$
R-group 109 (768-2)
     RDKit          3D

  0  0  0  0  0  0  0  0  0  0999 V3000
M  V30 BEGIN CTAB
M  V30 COUNTS 12 11 0 0 1
M  V30 BEGIN ATOM
M  V30 1 C 75.985900 57.078900 43.299500 0
M  V30 2 O 75.360400 56.137000 42.434600 0
M  V30 3 C 74.243000 55.453400 42.995800 0 CFG=1
M  V30 4 C 73.034400 56.395300 42.989000 0
M  V30 5 H 76.737800 57.648700 42.751600 0
M  V30 6 H 75.290400 57.802300 43.724500 0
M  V30 7 H 76.472900 56.562300 44.124700 0
M  V30 8 H 74.467700 55.256100 44.043600 0
M  V30 9 H 72.142100 55.865500 43.324900 0
M  V30 10 H 73.164200 57.233600 43.672000 0
M  V30 11 H 72.872300 56.810500 41.994600 0
M  V30 12 R 73.974600 54.097600 42.247000 0
M  V30 END ATOM
M  V30 BEGIN BOND
M  V30 1 1 2 1
M  V30 2 1 3 2
M  V30 3 1 4 3
M  V30 4 1 5 1
M  V30 5 1 6 1
M  V30 6 1 7 1
M  V30 7 1 3 8 CFG=1
M  V30 8 1 9 4
M  V30 9 1 10 4
M  V30 10 1 11 4
M  V30 11 1 12 3
M  V30 END BOND
M  V30 END CTAB
M  END
$$$$
R-group 110 (11586-1)
     RDKit          3D

  0  0  0  0  0  0  0  0  0  0999 V3000
M  V30 BEGIN CTAB
M  V30 COUNTS 16 16 0 0 1
M  V30 BEGIN ATOM
M  V30 1 C 76.868700 57.595000 40.343600 0
M  V30 2 C 76.590500 57.480800 41.808500 0
M  V30 3 C 75.285700 56.857000 42.084600 0
M  V30 4 C 74.116200 57.257900 42.645500 0
M  V30 5 C 73.374800 56.087800 42.924100 0
M  V30 6 C 73.964000 55.030500 42.288400 0
M  V30 7 N 75.128500 55.529200 41.779700 0
M  V30 8 H 77.824500 58.058600 40.119400 0
M  V30 9 H 76.932500 56.537100 40.124800 0
M  V30 10 H 76.083200 58.047300 39.733200 0
M  V30 11 H 76.872300 58.337600 42.409900 0
M  V30 12 H 77.272200 56.718500 42.124700 0
M  V30 13 H 73.894500 58.258800 42.977400 0
M  V30 14 H 72.447300 56.050900 43.476300 0
M  V30 15 H 75.827300 54.967100 41.316700 0
M  V30 16 R 73.611700 53.579300 42.156300 0
M  V30 END ATOM
M  V30 BEGIN BOND
M  V30 1 1 2 1
M  V30 2 1 3 2
M  V30 3 2 4 3
M  V30 4 1 5 4
M  V30 5 2 6 5
M  V30 6 1 7 3
M  V30 7 1 7 6
M  V30 8 1 8 1
M  V30 9 1 9 1
M  V30 10 1 10 1
M  V30 11 1 11 2
M  V30 12 1 12 2
M  V30 13 1 13 4
M  V30 14 1 14 5
M  V30 15 1 15 7
M  V30 16 1 16 6
M  V30 END BOND
M  V30 END CTAB
M  END
$$$$
R-group 111 (5690-1)
     RDKit          3D

  0  0  0  0  0  0  0  0  0  0999 V3000
M  V30 BEGIN CTAB
M  V30 COUNTS 21 21 0 0 1
M  V30 BEGIN ATOM
M  V30 1 C 72.767000 54.107100 42.475600 0
M  V30 2 C 73.770900 55.237700 42.816200 0
M  V30 3 C 73.301500 56.603200 42.325100 0
M  V30 4 C 74.431800 57.591300 42.136600 0
M  V30 5 C 75.244200 57.250300 40.898200 0
M  V30 6 C 76.601700 57.841500 40.716500 0
M  V30 7 C 76.472000 56.372400 40.976900 0
M  V30 8 H 71.939400 54.457700 41.867000 0
M  V30 9 H 72.266300 53.658500 43.324700 0
M  V30 10 H 74.070600 55.262500 43.865700 0
M  V30 11 H 74.713600 55.018600 42.329200 0
M  V30 12 H 72.872400 56.497200 41.332400 0
M  V30 13 H 72.547000 56.999100 43.004800 0
M  V30 14 H 73.992300 58.581800 42.011100 0
M  V30 15 H 75.068200 57.621300 43.022400 0
M  V30 16 H 74.654500 57.169200 39.986000 0
M  V30 17 H 76.888800 58.186700 39.725100 0
M  V30 18 H 76.874000 58.458300 41.552900 0
M  V30 19 H 76.861300 56.058000 41.943500 0
M  V30 20 H 76.637800 55.679400 40.156800 0
M  V30 21 R 73.428900 52.983000 41.701600 0
M  V30 END ATOM
M  V30 BEGIN BOND
M  V30 1 1 2 1
M  V30 2 1 3 2
M  V30 3 1 4 3
M  V30 4 1 5 4
M  V30 5 1 6 5
M  V30 6 1 7 5
M  V30 7 1 7 6
M  V30 8 1 8 1
M  V30 9 1 9 1
M  V30 10 1 10 2
M  V30 11 1 11 2
M  V30 12 1 12 3
M  V30 13 1 13 3
M  V30 14 1 14 4
M  V30 15 1 15 4
M  V30 16 1 16 5
M  V30 17 1 17 6
M  V30 18 1 18 6
M  V30 19 1 19 7
M  V30 20 1 20 7
M  V30 21 1 21 1
M  V30 END BOND
M  V30 END CTAB
M  END
$$$$
R-group 112 (20052-2)
     RDKit          3D

  0  0  0  0  0  0  0  0  0  0999 V3000
M  V30 BEGIN CTAB
M  V30 COUNTS 18 19 0 0 1
M  V30 BEGIN ATOM
M  V30 1 N 74.211800 54.950900 41.787000 0
M  V30 2 C 73.426100 55.973000 41.065100 0
M  V30 3 C 73.085300 56.998100 42.163000 0 CFG=1
M  V30 4 C 72.990200 56.110400 43.356700 0
M  V30 5 C 74.400000 55.553600 43.108900 0 CFG=2
M  V30 6 C 75.332200 56.766900 42.889500 0
M  V30 7 F 76.036100 57.086700 43.977400 0
M  V30 8 F 76.202900 56.593400 41.889000 0
M  V30 9 C 74.275000 57.815100 42.549400 0
M  V30 10 H 74.030200 56.428600 40.279500 0
M  V30 11 H 72.527600 55.584600 40.586900 0
M  V30 12 H 72.261600 57.660200 41.929000 0
M  V30 13 H 72.175300 55.390600 43.276900 0
M  V30 14 H 72.872300 56.646400 44.298800 0
M  V30 15 H 74.786100 54.925500 43.901300 0
M  V30 16 H 74.049300 58.447100 43.405100 0
M  V30 17 H 74.472100 58.458000 41.723100 0
M  V30 18 R 73.692400 53.573600 41.821200 0
M  V30 END ATOM
M  V30 BEGIN BOND
M  V30 1 1 2 1
M  V30 2 1 3 2
M  V30 3 1 4 3
M  V30 4 1 5 1
M  V30 5 1 5 4
M  V30 6 1 6 5
M  V30 7 1 7 6
M  V30 8 1 8 6
M  V30 9 1 9 3
M  V30 10 1 9 6
M  V30 11 1 10 2
M  V30 12 1 11 2
M  V30 13 1 3 12 CFG=3
M  V30 14 1 13 4
M  V30 15 1 14 4
M  V30 16 1 5 15 CFG=1
M  V30 17 1 16 9
M  V30 18 1 17 9
M  V30 19 1 18 1
M  V30 END BOND
M  V30 END CTAB
M  END
$$$$
R-group 113 (6671-2)
     RDKit          3D

  0  0  0  0  0  0  0  0  0  0999 V3000
M  V30 BEGIN CTAB
M  V30 COUNTS 18 17 0 0 1
M  V30 BEGIN ATOM
M  V30 1 C 73.830200 55.549300 41.832500 0 CFG=1
M  V30 2 C 75.273900 55.962400 42.072400 0
M  V30 3 N 75.672100 56.060000 43.324800 0
M  V30 4 O 76.071100 56.150500 41.151000 0
M  V30 5 C 73.171600 56.526100 40.798500 0
M  V30 6 C 73.824100 56.741300 39.423600 0
M  V30 7 C 72.977500 57.955500 41.395800 0
M  V30 8 H 73.316800 55.780900 42.767900 0
M  V30 9 H 75.016200 55.896900 44.082400 0
M  V30 10 H 72.213100 56.149900 40.450500 0
M  V30 11 H 74.791100 57.242200 39.453500 0
M  V30 12 H 73.155800 57.435500 38.922000 0
M  V30 13 H 73.892200 55.842000 38.817700 0
M  V30 14 H 73.940600 58.415600 41.649500 0
M  V30 15 H 72.488800 58.644100 40.691800 0
M  V30 16 H 72.394000 57.995700 42.322100 0
M  V30 17 H 76.631000 56.346700 43.503100 0
M  V30 18 R 73.620900 53.983600 41.704200 0
M  V30 END ATOM
M  V30 BEGIN BOND
M  V30 1 1 2 1
M  V30 2 1 3 2
M  V30 3 2 4 2
M  V30 4 1 5 1
M  V30 5 1 6 5
M  V30 6 1 7 5
M  V30 7 1 1 8 CFG=1
M  V30 8 1 9 3
M  V30 9 1 10 5
M  V30 10 1 11 6
M  V30 11 1 12 6
M  V30 12 1 13 6
M  V30 13 1 14 7
M  V30 14 1 15 7
M  V30 15 1 16 7
M  V30 16 1 17 3
M  V30 17 1 18 1
M  V30 END BOND
M  V30 END CTAB
M  END
$$$$
R-group 114 (8048-2)
     RDKit          3D

  0  0  0  0  0  0  0  0  0  0999 V3000
M  V30 BEGIN CTAB
M  V30 COUNTS 15 15 0 0 1
M  V30 BEGIN ATOM
M  V30 1 C 74.438400 55.180200 43.033600 0 CFG=1
M  V30 2 C 75.716600 55.657100 42.361300 0
M  V30 3 N 75.299100 56.765800 41.544400 0
M  V30 4 C 76.201200 57.449600 40.638900 0
M  V30 5 C 73.987800 56.950200 41.645300 0
M  V30 6 O 73.272300 57.658000 40.947700 0
M  V30 7 N 73.570700 56.249900 42.683000 0
M  V30 8 H 74.552300 55.208500 44.117900 0
M  V30 9 H 76.469700 55.993900 43.075300 0
M  V30 10 H 76.072700 54.871100 41.721700 0
M  V30 11 H 75.664500 57.658000 39.724600 0
M  V30 12 H 76.542000 58.392600 41.063600 0
M  V30 13 H 77.070300 56.858000 40.376000 0
M  V30 14 H 72.610600 56.256900 42.993600 0
M  V30 15 R 73.899100 53.785600 42.549300 0
M  V30 END ATOM
M  V30 BEGIN BOND
M  V30 1 1 2 1
M  V30 2 1 3 2
M  V30 3 1 4 3
M  V30 4 1 5 3
M  V30 5 2 6 5
M  V30 6 1 7 1
M  V30 7 1 7 5
M  V30 8 1 1 8 CFG=1
M  V30 9 1 9 2
M  V30 10 1 10 2
M  V30 11 1 11 4
M  V30 12 1 12 4
M  V30 13 1 13 4
M  V30 14 1 14 7
M  V30 15 1 15 1
M  V30 END BOND
M  V30 END CTAB
M  END
$$$$
R-group 115 (18409-2)
     RDKit          3D

  0  0  0  0  0  0  0  0  0  0999 V3000
M  V30 BEGIN CTAB
M  V30 COUNTS 10 10 0 0 1
M  V30 BEGIN ATOM
M  V30 1 C 73.984300 55.010200 42.311000 0
M  V30 2 N 73.400900 56.058200 42.902400 0
M  V30 3 N 74.124300 57.149000 42.526500 0
M  V30 4 C 75.197400 56.635000 41.940700 0
M  V30 5 C 76.472300 57.258000 41.664300 0
M  V30 6 F 76.505000 57.881800 40.488500 0
M  V30 7 F 76.872300 58.058000 42.645700 0
M  V30 8 O 75.141300 55.319600 41.710900 0
M  V30 9 H 77.235000 56.493300 41.724700 0
M  V30 10 R 73.561600 53.587400 42.227100 0
M  V30 END ATOM
M  V30 BEGIN BOND
M  V30 1 2 2 1
M  V30 2 1 3 2
M  V30 3 2 4 3
M  V30 4 1 5 4
M  V30 5 1 6 5
M  V30 6 1 7 5
M  V30 7 1 8 1
M  V30 8 1 8 4
M  V30 9 1 9 5
M  V30 10 1 10 1
M  V30 END BOND
M  V30 END CTAB
M  END
$$$$
R-group 116 (21460-1)
     RDKit          3D

  0  0  0  0  0  0  0  0  0  0999 V3000
M  V30 BEGIN CTAB
M  V30 COUNTS 19 19 0 0 1
M  V30 BEGIN ATOM
M  V30 1 C 74.666200 55.739400 41.860400 0
M  V30 2 C 73.780800 56.846200 41.408000 0
M  V30 3 O 73.601500 57.024300 40.201100 0
M  V30 4 N 73.272200 57.657500 42.360200 0
M  V30 5 C 72.405800 58.787600 41.971400 0
M  V30 6 C 72.973900 57.159700 43.712900 0
M  V30 7 C 75.790300 56.095600 42.820900 0
M  V30 8 C 76.056300 56.055500 41.336900 0
M  V30 9 H 72.075500 58.739700 40.937500 0
M  V30 10 H 71.496600 58.857600 42.565500 0
M  V30 11 H 72.877000 59.746400 42.109600 0
M  V30 12 H 73.612300 56.380500 44.119800 0
M  V30 13 H 72.866000 58.012500 44.399000 0
M  V30 14 H 72.072300 56.570100 43.725000 0
M  V30 15 H 75.806400 57.087300 43.275100 0
M  V30 16 H 76.071000 55.303500 43.500000 0
M  V30 17 H 76.472300 55.258100 40.771600 0
M  V30 18 H 76.258000 57.024800 40.884400 0
M  V30 19 R 73.982800 54.310900 41.884100 0
M  V30 END ATOM
M  V30 BEGIN BOND
M  V30 1 1 2 1
M  V30 2 2 3 2
M  V30 3 1 4 2
M  V30 4 1 5 4
M  V30 5 1 6 4
M  V30 6 1 7 1
M  V30 7 1 8 1
M  V30 8 1 8 7
M  V30 9 1 9 5
M  V30 10 1 10 5
M  V30 11 1 11 5
M  V30 12 1 12 6
M  V30 13 1 13 6
M  V30 14 1 14 6
M  V30 15 1 15 7
M  V30 16 1 16 7
M  V30 17 1 17 8
M  V30 18 1 18 8
M  V30 19 1 19 1
M  V30 END BOND
M  V30 END CTAB
M  END
$$$$
R-group 117 (2964-2)
     RDKit          3D

  0  0  0  0  0  0  0  0  0  0999 V3000
M  V30 BEGIN CTAB
M  V30 COUNTS 13 13 0 0 1
M  V30 BEGIN ATOM
M  V30 1 C 74.735800 55.152700 41.962800 0 CFG=2
M  V30 2 C 74.886500 55.862700 43.324700 0
M  V30 3 C 74.081400 57.165900 43.248800 0
M  V30 4 C 73.671600 57.208700 41.790600 0
M  V30 5 O 72.919300 58.058900 41.323700 0
M  V30 6 N 74.094000 56.141700 41.127300 0
M  V30 7 H 75.724700 54.983600 41.539200 0
M  V30 8 H 74.525000 55.256000 44.155000 0
M  V30 9 H 75.937700 56.081400 43.522500 0
M  V30 10 H 73.180600 57.130200 43.863000 0
M  V30 11 H 74.673400 58.043200 43.511000 0
M  V30 12 H 73.876200 55.974100 40.157100 0
M  V30 13 R 73.953700 53.803500 42.010800 0
M  V30 END ATOM
M  V30 BEGIN BOND
M  V30 1 1 2 1
M  V30 2 1 3 2
M  V30 3 1 4 3
M  V30 4 2 5 4
M  V30 5 1 6 1
M  V30 6 1 6 4
M  V30 7 1 1 7 CFG=3
M  V30 8 1 8 2
M  V30 9 1 9 2
M  V30 10 1 10 3
M  V30 11 1 11 3
M  V30 12 1 12 6
M  V30 13 1 13 1
M  V30 END BOND
M  V30 END CTAB
M  END
$$$$
R-group 118 (39915-2)
     RDKit          3D

  0  0  0  0  0  0  0  0  0  0999 V3000
M  V30 BEGIN CTAB
M  V30 COUNTS 15 14 0 0 1
M  V30 BEGIN ATOM
M  V30 1 C 74.235500 55.571400 42.498900 0 CFG=1
M  V30 2 C 75.283400 56.050100 41.626100 0
M  V30 3 N 76.072200 56.480500 40.924800 0
M  V30 4 C 73.184800 56.680800 42.379300 0
M  V30 5 C 72.872300 57.156200 40.920800 0
M  V30 6 C 73.420000 57.951300 43.180700 0
M  V30 7 H 74.641100 55.620100 43.509700 0
M  V30 8 H 72.386200 56.214100 42.924900 0
M  V30 9 H 73.722400 57.658300 40.461900 0
M  V30 10 H 72.072400 57.895500 40.896800 0
M  V30 11 H 72.574200 56.377000 40.232000 0
M  V30 12 H 74.472700 58.171900 43.324500 0
M  V30 13 H 72.915500 58.801200 42.714900 0
M  V30 14 H 72.934600 57.847600 44.134600 0
M  V30 15 R 73.718100 54.100800 42.260600 0
M  V30 END ATOM
M  V30 BEGIN BOND
M  V30 1 1 2 1
M  V30 2 3 3 2
M  V30 3 1 4 1
M  V30 4 1 5 4
M  V30 5 1 6 4
M  V30 6 1 1 7 CFG=1
M  V30 7 1 8 4
M  V30 8 1 9 5
M  V30 9 1 10 5
M  V30 10 1 11 5
M  V30 11 1 12 6
M  V30 12 1 13 6
M  V30 13 1 14 6
M  V30 14 1 15 1
M  V30 END BOND
M  V30 END CTAB
M  END
$$$$
R-group 119 (14287-1)
     RDKit          3D

  0  0  0  0  0  0  0  0  0  0999 V3000
M  V30 BEGIN CTAB
M  V30 COUNTS 15 15 0 0 1
M  V30 BEGIN ATOM
M  V30 1 C 76.904500 57.636900 40.396200 0
M  V30 2 C 76.603800 57.373000 41.849000 0
M  V30 3 N 75.315800 56.767600 42.046200 0
M  V30 4 C 74.178100 57.257300 42.632800 0
M  V30 5 C 73.420100 56.169600 42.924600 0
M  V30 6 C 74.048200 55.094700 42.233500 0
M  V30 7 N 75.187000 55.478100 41.704000 0
M  V30 8 H 77.701000 58.346300 40.218300 0
M  V30 9 H 77.266100 56.659200 40.124700 0
M  V30 10 H 76.072300 57.890000 39.739400 0
M  V30 11 H 76.872200 58.164700 42.547000 0
M  V30 12 H 77.272200 56.577600 42.124700 0
M  V30 13 H 74.072400 58.285800 42.938800 0
M  V30 14 H 72.503900 56.143000 43.496900 0
M  V30 15 R 73.636200 53.642000 42.136100 0
M  V30 END ATOM
M  V30 BEGIN BOND
M  V30 1 1 2 1
M  V30 2 1 3 2
M  V30 3 1 4 3
M  V30 4 2 5 4
M  V30 5 1 6 5
M  V30 6 1 7 3
M  V30 7 2 7 6
M  V30 8 1 8 1
M  V30 9 1 9 1
M  V30 10 1 10 1
M  V30 11 1 11 2
M  V30 12 1 12 2
M  V30 13 1 13 4
M  V30 14 1 14 5
M  V30 15 1 15 6
M  V30 END BOND
M  V30 END CTAB
M  END
$$$$
R-group 120 (2872-1)
     RDKit          3D

  0  0  0  0  0  0  0  0  0  0999 V3000
M  V30 BEGIN CTAB
M  V30 COUNTS 18 18 0 0 1
M  V30 BEGIN ATOM
M  V30 1 C 73.626100 54.766300 41.789700 0 CFG=1
M  V30 2 C 73.039700 55.607500 42.924700 0
M  V30 3 C 72.958100 57.101300 42.630500 0
M  V30 4 C 74.292300 57.695300 42.386000 0
M  V30 5 S 75.096600 56.851400 40.986100 0
M  V30 6 O 74.226200 56.858800 39.799000 0
M  V30 7 O 76.472600 57.324000 40.925200 0
M  V30 8 C 75.097700 55.165700 41.594800 0
M  V30 9 H 73.063100 55.054400 40.902100 0
M  V30 10 H 72.059900 55.259700 43.252200 0
M  V30 11 H 73.732000 55.505300 43.745000 0
M  V30 12 H 72.471900 57.326000 41.690200 0
M  V30 13 H 72.472400 57.638000 43.444000 0
M  V30 14 H 74.072300 58.727100 42.121800 0
M  V30 15 H 74.946100 57.657300 43.257800 0
M  V30 16 H 75.666700 55.138400 42.523100 0
M  V30 17 H 75.637000 54.564200 40.871200 0
M  V30 18 R 73.411900 53.248600 41.924400 0
M  V30 END ATOM
M  V30 BEGIN BOND
M  V30 1 1 2 1
M  V30 2 1 3 2
M  V30 3 1 4 3
M  V30 4 1 5 4
M  V30 5 2 6 5
M  V30 6 2 7 5
M  V30 7 1 8 1
M  V30 8 1 8 5
M  V30 9 1 1 9 CFG=3
M  V30 10 1 10 2
M  V30 11 1 11 2
M  V30 12 1 12 3
M  V30 13 1 13 3
M  V30 14 1 14 4
M  V30 15 1 15 4
M  V30 16 1 16 8
M  V30 17 1 17 8
M  V30 18 1 18 1
M  V30 END BOND
M  V30 END CTAB
M  END
$$$$
R-group 121 (7123-1)
     RDKit          3D

  0  0  0  0  0  0  0  0  0  0999 V3000
M  V30 BEGIN CTAB
M  V30 COUNTS 15 15 0 0 1
M  V30 BEGIN ATOM
M  V30 1 N 73.722600 54.722000 41.702300 0
M  V30 2 C 73.082600 55.377600 42.841600 0
M  V30 3 C 73.076300 56.876100 42.664400 0
M  V30 4 N 74.405400 57.291000 42.361500 0
M  V30 5 C 75.354500 56.642300 41.713400 0
M  V30 6 O 76.344600 57.240800 41.287800 0
M  V30 7 C 75.156200 55.143400 41.610500 0
M  V30 8 H 72.069500 55.012700 43.007700 0
M  V30 9 H 73.701400 55.257100 43.724700 0
M  V30 10 H 72.472400 57.258500 41.843700 0
M  V30 11 H 72.747500 57.374000 43.578500 0
M  V30 12 H 75.672700 54.774800 42.490600 0
M  V30 13 H 75.669800 54.766400 40.731600 0
M  V30 14 H 74.564700 58.283400 42.455800 0
M  V30 15 R 73.499000 53.277400 41.759800 0
M  V30 END ATOM
M  V30 BEGIN BOND
M  V30 1 1 2 1
M  V30 2 1 3 2
M  V30 3 1 4 3
M  V30 4 1 5 4
M  V30 5 2 6 5
M  V30 6 1 7 1
M  V30 7 1 7 5
M  V30 8 1 8 2
M  V30 9 1 9 2
M  V30 10 1 10 3
M  V30 11 1 11 3
M  V30 12 1 12 7
M  V30 13 1 13 7
M  V30 14 1 14 4
M  V30 15 1 15 1
M  V30 END BOND
M  V30 END CTAB
M  END
$$$$
R-group 122 (5090-1)
     RDKit          3D

  0  0  0  0  0  0  0  0  0  0999 V3000
M  V30 BEGIN CTAB
M  V30 COUNTS 14 13 0 0 1
M  V30 BEGIN ATOM
M  V30 1 C 73.996900 55.130900 41.846200 0 CFG=2
M  V30 2 F 75.272200 55.297300 41.498900 0
M  V30 3 C 73.689800 56.018600 43.055000 0
M  V30 4 C 74.016100 57.503700 42.798800 0
M  V30 5 C 73.106900 58.175000 41.768000 0
M  V30 6 F 73.272200 57.658000 40.548200 0
M  V30 7 H 73.424300 55.502600 41.005400 0
M  V30 8 H 72.638400 55.918700 43.324700 0
M  V30 9 H 74.265000 55.658000 43.904900 0
M  V30 10 H 73.903800 58.057800 43.724700 0
M  V30 11 H 75.057700 57.620200 42.502800 0
M  V30 12 H 72.072300 58.058100 42.045100 0
M  V30 13 H 73.272200 59.247800 41.724700 0
M  V30 14 R 73.638900 53.634200 41.967900 0
M  V30 END ATOM
M  V30 BEGIN BOND
M  V30 1 1 2 1
M  V30 2 1 3 1
M  V30 3 1 4 3
M  V30 4 1 5 4
M  V30 5 1 6 5
M  V30 6 1 1 7 CFG=3
M  V30 7 1 8 3
M  V30 8 1 9 3
M  V30 9 1 10 4
M  V30 10 1 11 4
M  V30 11 1 12 5
M  V30 12 1 13 5
M  V30 13 1 14 1
M  V30 END BOND
M  V30 END CTAB
M  END
$$$$
R-group 123 (9314-1)
     RDKit          3D

  0  0  0  0  0  0  0  0  0  0999 V3000
M  V30 BEGIN CTAB
M  V30 COUNTS 13 12 0 0 1
M  V30 BEGIN ATOM
M  V30 1 C 73.322500 54.556900 42.084700 0
M  V30 2 C 74.712700 55.200000 42.191100 0
M  V30 3 S 74.751100 56.702500 41.211300 0
M  V30 4 N 73.671500 57.658100 42.124100 0
M  V30 5 O 76.103000 57.257700 41.324700 0
M  V30 6 O 74.136400 56.461500 39.899100 0
M  V30 7 H 72.782600 54.973000 41.240900 0
M  V30 8 H 72.710000 54.849100 42.925500 0
M  V30 9 H 74.979400 55.431500 43.225200 0
M  V30 10 H 75.514600 54.596700 41.781100 0
M  V30 11 H 74.127400 58.478600 42.515900 0
M  V30 12 H 72.821000 57.876400 41.610900 0
M  V30 13 R 73.347700 53.040800 41.913800 0
M  V30 END ATOM
M  V30 BEGIN BOND
M  V30 1 1 2 1
M  V30 2 1 3 2
M  V30 3 1 4 3
M  V30 4 2 5 3
M  V30 5 2 6 3
M  V30 6 1 7 1
M  V30 7 1 8 1
M  V30 8 1 9 2
M  V30 9 1 10 2
M  V30 10 1 11 4
M  V30 11 1 12 4
M  V30 12 1 13 1
M  V30 END BOND
M  V30 END CTAB
M  END
$$$$
R-group 124 (12899-1)
     RDKit          3D

  0  0  0  0  0  0  0  0  0  0999 V3000
M  V30 BEGIN CTAB
M  V30 COUNTS 12 12 0 0 1
M  V30 BEGIN ATOM
M  V30 1 C 72.824200 54.371300 41.877500 0
M  V30 2 C 73.680500 55.427800 41.236600 0
M  V30 3 N 73.473500 56.066700 40.139200 0
M  V30 4 N 74.560000 56.857700 40.113700 0
M  V30 5 C 75.406900 56.685600 41.134000 0
M  V30 6 O 76.472200 57.257900 41.324800 0
M  V30 7 N 74.835700 55.763500 41.885400 0
M  V30 8 H 71.816600 54.457700 41.473800 0
M  V30 9 H 72.727800 54.591900 42.924800 0
M  V30 10 H 74.675200 57.509000 39.351400 0
M  V30 11 H 75.175500 55.378400 42.752700 0
M  V30 12 R 73.306400 52.937600 41.642100 0
M  V30 END ATOM
M  V30 BEGIN BOND
M  V30 1 1 2 1
M  V30 2 2 3 2
M  V30 3 1 4 3
M  V30 4 1 5 4
M  V30 5 2 6 5
M  V30 6 1 7 2
M  V30 7 1 7 5
M  V30 8 1 8 1
M  V30 9 1 9 1
M  V30 10 1 10 4
M  V30 11 1 11 7
M  V30 12 1 12 1
M  V30 END BOND
M  V30 END CTAB
M  END
$$$$
R-group 125 (11406-1)
     RDKit          3D

  0  0  0  0  0  0  0  0  0  0999 V3000
M  V30 BEGIN CTAB
M  V30 COUNTS 14 14 0 0 1
M  V30 BEGIN ATOM
M  V30 1 C 72.912200 54.299300 42.095700 0
M  V30 2 N 73.887300 55.370000 41.813900 0
M  V30 3 C 73.673600 56.060300 40.605400 0
M  V30 4 N 74.580100 56.812100 40.084000 0
M  V30 5 C 75.770200 56.966400 40.772200 0
M  V30 6 C 75.952100 56.510600 42.009200 0
M  V30 7 C 74.964900 55.653800 42.612400 0
M  V30 8 O 75.198900 55.169000 43.718900 0
M  V30 9 H 71.944000 54.457800 41.621400 0
M  V30 10 H 72.680600 54.239500 43.133200 0
M  V30 11 H 72.709700 55.893500 40.127300 0
M  V30 12 H 76.513300 57.577800 40.286500 0
M  V30 13 H 76.871800 56.720600 42.523200 0
M  V30 14 R 73.356100 52.918500 41.616500 0
M  V30 END ATOM
M  V30 BEGIN BOND
M  V30 1 1 2 1
M  V30 2 1 3 2
M  V30 3 2 4 3
M  V30 4 1 5 4
M  V30 5 2 6 5
M  V30 6 1 7 2
M  V30 7 1 7 6
M  V30 8 2 8 7
M  V30 9 1 9 1
M  V30 10 1 10 1
M  V30 11 1 11 3
M  V30 12 1 12 5
M  V30 13 1 13 6
M  V30 14 1 14 1
M  V30 END BOND
M  V30 END CTAB
M  END
$$$$
R-group 126 (2702-1)
     RDKit          3D

  0  0  0  0  0  0  0  0  0  0999 V3000
M  V30 BEGIN CTAB
M  V30 COUNTS 16 16 0 0 1
M  V30 BEGIN ATOM
M  V30 1 C 72.736500 54.137700 42.104500 0
M  V30 2 C 73.870300 55.155200 42.131500 0
M  V30 3 C 74.672100 55.261000 43.279600 0
M  V30 4 C 75.716700 56.167000 43.285600 0
M  V30 5 C 76.072300 56.858000 42.124600 0
M  V30 6 C 75.310300 56.769700 40.975700 0
M  V30 7 C 74.158500 55.992200 41.028900 0
M  V30 8 C 73.162500 56.244600 40.051400 0
M  V30 9 N 72.308600 56.449900 39.324700 0
M  V30 10 H 72.250500 54.027000 43.063400 0
M  V30 11 H 71.916200 54.458100 41.462600 0
M  V30 12 H 74.472500 54.722700 44.191700 0
M  V30 13 H 76.325600 56.283300 44.166500 0
M  V30 14 H 76.933900 57.511600 42.134400 0
M  V30 15 H 75.546700 57.377900 40.115500 0
M  V30 16 R 73.254700 52.776000 41.632300 0
M  V30 END ATOM
M  V30 BEGIN BOND
M  V30 1 1 2 1
M  V30 2 2 3 2
M  V30 3 1 4 3
M  V30 4 2 5 4
M  V30 5 1 6 5
M  V30 6 1 7 2
M  V30 7 2 7 6
M  V30 8 1 8 7
M  V30 9 3 9 8
M  V30 10 1 10 1
M  V30 11 1 11 1
M  V30 12 1 12 3
M  V30 13 1 13 4
M  V30 14 1 14 5
M  V30 15 1 15 6
M  V30 16 1 16 1
M  V30 END BOND
M  V30 END CTAB
M  END
$$$$
R-group 127 (30463-1)
     RDKit          3D

  0  0  0  0  0  0  0  0  0  0999 V3000
M  V30 BEGIN CTAB
M  V30 COUNTS 20 20 0 0 1
M  V30 BEGIN ATOM
M  V30 1 C 76.294800 56.383800 43.732400 0
M  V30 2 N 75.133400 55.657800 43.286700 0
M  V30 3 C 74.871600 55.400300 42.008200 0
M  V30 4 O 75.654000 55.659200 41.096300 0
M  V30 5 C 73.491800 54.807100 41.742100 0 CFG=1
M  V30 6 C 72.850100 55.497500 40.525100 0
M  V30 7 C 72.909500 57.020000 40.375800 0
M  V30 8 O 72.872300 56.858000 38.955300 0
M  V30 9 C 73.392700 55.535900 39.095100 0
M  V30 10 H 76.072800 57.090400 44.524100 0
M  V30 11 H 77.018200 55.658100 44.126700 0
M  V30 12 H 76.672500 57.002700 42.910400 0
M  V30 13 H 72.884900 55.093500 42.605000 0
M  V30 14 H 71.815100 55.170700 40.427100 0
M  V30 15 H 72.072500 57.584200 40.758200 0
M  V30 16 H 73.839800 57.498100 40.686500 0
M  V30 17 H 74.471600 55.556500 38.969000 0
M  V30 18 H 72.924100 54.836700 38.403100 0
M  V30 19 H 74.428800 55.422400 43.973200 0
M  V30 20 R 73.454000 53.245100 41.729600 0
M  V30 END ATOM
M  V30 BEGIN BOND
M  V30 1 1 2 1
M  V30 2 1 3 2
M  V30 3 2 4 3
M  V30 4 1 5 3
M  V30 5 1 6 5
M  V30 6 1 7 6
M  V30 7 1 8 7
M  V30 8 1 9 6
M  V30 9 1 9 8
M  V30 10 1 10 1
M  V30 11 1 11 1
M  V30 12 1 12 1
M  V30 13 1 5 13 CFG=1
M  V30 14 1 14 6
M  V30 15 1 15 7
M  V30 16 1 16 7
M  V30 17 1 17 9
M  V30 18 1 18 9
M  V30 19 1 19 2
M  V30 20 1 20 5
M  V30 END BOND
M  V30 END CTAB
M  END
$$$$
R-group 128 (8058-1)
     RDKit          3D

  0  0  0  0  0  0  0  0  0  0999 V3000
M  V30 BEGIN CTAB
M  V30 COUNTS 15 15 0 0 1
M  V30 BEGIN ATOM
M  V30 1 C 74.789800 55.295900 41.904100 0 CFG=2
M  V30 2 C 74.623500 56.057700 43.226300 0
M  V30 3 N 73.775000 57.166200 42.850700 0
M  V30 4 C 73.606700 57.257800 41.541500 0
M  V30 5 O 72.872200 58.058000 40.973800 0
M  V30 6 N 74.300400 56.290900 40.953100 0
M  V30 7 C 74.859500 56.458400 39.623500 0
M  V30 8 H 75.847500 55.121100 41.707300 0
M  V30 9 H 74.150800 55.476600 44.015600 0
M  V30 10 H 75.585200 56.430200 43.584500 0
M  V30 11 H 74.636500 57.437400 39.195600 0
M  V30 12 H 75.940400 56.385700 39.724700 0
M  V30 13 H 74.472200 55.714600 38.928700 0
M  V30 14 H 73.315000 57.762300 43.521400 0
M  V30 15 R 73.999600 53.935400 41.900000 0
M  V30 END ATOM
M  V30 BEGIN BOND
M  V30 1 1 2 1
M  V30 2 1 3 2
M  V30 3 1 4 3
M  V30 4 2 5 4
M  V30 5 1 6 1
M  V30 6 1 6 4
M  V30 7 1 7 6
M  V30 8 1 1 8 CFG=3
M  V30 9 1 9 2
M  V30 10 1 10 2
M  V30 11 1 11 7
M  V30 12 1 12 7
M  V30 13 1 13 7
M  V30 14 1 14 3
M  V30 15 1 15 1
M  V30 END BOND
M  V30 END CTAB
M  END
$$$$
R-group 129 (16214-1)
     RDKit          3D

  0  0  0  0  0  0  0  0  0  0999 V3000
M  V30 BEGIN CTAB
M  V30 COUNTS 19 18 0 0 1
M  V30 BEGIN ATOM
M  V30 1 C 71.823300 56.325200 39.108700 0
M  V30 2 C 73.261900 56.858200 39.005600 0
M  V30 3 O 74.093900 56.510300 40.090300 0
M  V30 4 C 73.809800 57.220400 41.288500 0
M  V30 5 C 74.917500 56.907900 42.298000 0
M  V30 6 C 75.099400 55.395800 42.450700 0
M  V30 7 O 73.803700 54.807700 42.524700 0
M  V30 8 H 71.168900 56.857600 38.418100 0
M  V30 9 H 71.774800 55.264700 38.866500 0
M  V30 10 H 71.399000 56.443200 40.097200 0
M  V30 11 H 73.272500 57.944200 38.924700 0
M  V30 12 H 73.730100 56.457900 38.108700 0
M  V30 13 H 72.872300 56.878300 41.704200 0
M  V30 14 H 73.672300 58.290800 41.135100 0
M  V30 15 H 74.660800 57.352400 43.260000 0
M  V30 16 H 75.861300 57.353300 41.983400 0
M  V30 17 H 75.672000 55.178200 43.351900 0
M  V30 18 H 75.671000 55.016000 41.608800 0
M  V30 19 R 73.642200 53.421700 42.242800 0
M  V30 END ATOM
M  V30 BEGIN BOND
M  V30 1 1 2 1
M  V30 2 1 3 2
M  V30 3 1 4 3
M  V30 4 1 5 4
M  V30 5 1 6 5
M  V30 6 1 7 6
M  V30 7 1 8 1
M  V30 8 1 9 1
M  V30 9 1 10 1
M  V30 10 1 11 2
M  V30 11 1 12 2
M  V30 12 1 13 4
M  V30 13 1 14 4
M  V30 14 1 15 5
M  V30 15 1 16 5
M  V30 16 1 17 6
M  V30 17 1 18 6
M  V30 18 1 19 7
M  V30 END BOND
M  V30 END CTAB
M  END
$$$$
R-group 130 (1536-1)
     RDKit          3D

  0  0  0  0  0  0  0  0  0  0999 V3000
M  V30 BEGIN CTAB
M  V30 COUNTS 13 13 0 0 1
M  V30 BEGIN ATOM
M  V30 1 N 73.408200 55.022500 42.474700 0
M  V30 2 C 74.114000 56.131200 42.300300 0
M  V30 3 O 73.838900 57.175800 42.853900 0
M  V30 4 C 75.214000 56.053600 41.288100 0
M  V30 5 C 74.963100 56.893100 40.020000 0
M  V30 6 C 76.087400 57.223100 40.971900 0
M  V30 7 H 75.720400 55.114000 41.221700 0
M  V30 8 H 75.233000 56.457900 39.065500 0
M  V30 9 H 74.117900 57.561600 39.979600 0
M  V30 10 H 76.005600 58.046400 41.632800 0
M  V30 11 H 77.087700 56.930300 40.681400 0
M  V30 12 H 72.704300 55.026700 43.221700 0
M  V30 13 R 73.489000 53.744600 41.764800 0
M  V30 END ATOM
M  V30 BEGIN BOND
M  V30 1 1 2 1
M  V30 2 2 3 2
M  V30 3 1 4 2
M  V30 4 1 5 4
M  V30 5 1 6 4
M  V30 6 1 6 5
M  V30 7 1 7 4
M  V30 8 1 8 5
M  V30 9 1 9 5
M  V30 10 1 10 6
M  V30 11 1 11 6
M  V30 12 1 12 1
M  V30 13 1 13 1
M  V30 END BOND
M  V30 END CTAB
M  END
$$$$
R-group 131 (22676-1)
     RDKit          3D

  0  0  0  0  0  0  0  0  0  0999 V3000
M  V30 BEGIN CTAB
M  V30 COUNTS 16 16 0 0 1
M  V30 BEGIN ATOM
M  V30 1 C 74.384600 55.222600 41.686800 0 CFG=1
M  V30 2 C 73.636000 56.245200 40.806300 0
M  V30 3 C 73.514600 57.458400 41.699000 0
M  V30 4 O 72.872000 58.457600 41.406700 0
M  V30 5 N 74.076000 57.257700 42.867500 0
M  V30 6 C 74.506500 55.904800 43.065500 0 CFG=2
M  V30 7 C 75.909200 55.878100 43.676100 0
M  V30 8 H 75.386500 55.133800 41.265100 0
M  V30 9 H 74.189900 56.488500 39.898700 0
M  V30 10 H 72.633300 55.931800 40.524700 0
M  V30 11 H 73.768200 55.477000 43.724500 0
M  V30 12 H 76.090000 54.908700 44.125900 0
M  V30 13 H 76.641100 56.058200 42.893000 0
M  V30 14 H 76.071900 56.624500 44.455100 0
M  V30 15 H 74.053100 57.933800 43.615900 0
M  V30 16 R 73.753300 53.798600 41.757000 0
M  V30 END ATOM
M  V30 BEGIN BOND
M  V30 1 1 2 1
M  V30 2 1 3 2
M  V30 3 2 4 3
M  V30 4 1 5 3
M  V30 5 1 6 1
M  V30 6 1 6 5
M  V30 7 1 7 6
M  V30 8 1 1 8 CFG=3
M  V30 9 1 9 2
M  V30 10 1 10 2
M  V30 11 1 6 11 CFG=1
M  V30 12 1 12 7
M  V30 13 1 13 7
M  V30 14 1 14 7
M  V30 15 1 15 5
M  V30 16 1 16 1
M  V30 END BOND
M  V30 END CTAB
M  END
$$$$
R-group 132 (4892-1)
     RDKit          3D

  0  0  0  0  0  0  0  0  0  0999 V3000
M  V30 BEGIN CTAB
M  V30 COUNTS 14 14 0 0 1
M  V30 BEGIN ATOM
M  V30 1 C 73.127700 54.177500 42.454100 0
M  V30 2 C 73.672200 55.072000 41.407000 0
M  V30 3 C 72.964200 55.296700 40.204700 0
M  V30 4 N 73.339200 56.211200 39.324900 0
M  V30 5 C 74.472600 56.857800 39.604500 0
M  V30 6 C 75.284800 56.660100 40.731500 0
M  V30 7 F 76.429600 57.344600 40.923200 0
M  V30 8 C 74.870100 55.740300 41.672900 0
M  V30 9 H 72.070900 54.379900 42.634000 0
M  V30 10 H 73.671100 54.489100 43.326500 0
M  V30 11 H 72.008600 54.837200 40.013500 0
M  V30 12 H 74.752300 57.622000 38.899200 0
M  V30 13 H 75.446800 55.575100 42.571200 0
M  V30 14 R 73.378900 52.711400 42.139200 0
M  V30 END ATOM
M  V30 BEGIN BOND
M  V30 1 1 2 1
M  V30 2 2 3 2
M  V30 3 1 4 3
M  V30 4 2 5 4
M  V30 5 1 6 5
M  V30 6 1 7 6
M  V30 7 1 8 2
M  V30 8 2 8 6
M  V30 9 1 9 1
M  V30 10 1 10 1
M  V30 11 1 11 3
M  V30 12 1 12 5
M  V30 13 1 13 8
M  V30 14 1 14 1
M  V30 END BOND
M  V30 END CTAB
M  END
$$$$
R-group 133 (14291-1)
     RDKit          3D

  0  0  0  0  0  0  0  0  0  0999 V3000
M  V30 BEGIN CTAB
M  V30 COUNTS 14 14 0 0 1
M  V30 BEGIN ATOM
M  V30 1 C 76.233500 58.057500 39.725800 0
M  V30 2 C 74.843500 57.415600 39.347300 0
M  V30 3 C 74.332000 56.611500 40.481100 0
M  V30 4 N 74.098800 55.309800 40.394300 0
M  V30 5 C 73.763600 54.739700 41.617900 0
M  V30 6 C 73.816000 55.636400 42.648300 0
M  V30 7 S 74.072600 57.247900 42.101100 0
M  V30 8 H 76.466900 58.858000 39.031000 0
M  V30 9 H 76.356500 58.457600 40.746700 0
M  V30 10 H 77.040900 57.330800 39.731700 0
M  V30 11 H 74.871400 56.773900 38.466000 0
M  V30 12 H 74.034200 58.143600 39.167700 0
M  V30 13 H 73.678100 55.417300 43.704200 0
M  V30 14 R 73.481200 53.279400 41.734500 0
M  V30 END ATOM
M  V30 BEGIN BOND
M  V30 1 1 2 1
M  V30 2 1 3 2
M  V30 3 2 4 3
M  V30 4 1 5 4
M  V30 5 2 6 5
M  V30 6 1 7 3
M  V30 7 1 7 6
M  V30 8 1 8 1
M  V30 9 1 9 1
M  V30 10 1 10 1
M  V30 11 1 11 2
M  V30 12 1 12 2
M  V30 13 1 13 6
M  V30 14 1 14 5
M  V30 END BOND
M  V30 END CTAB
M  END
$$$$
R-group 134 (12888-3)
     RDKit          3D

  0  0  0  0  0  0  0  0  0  0999 V3000
M  V30 BEGIN CTAB
M  V30 COUNTS 23 22 0 0 1
M  V30 BEGIN ATOM
M  V30 1 C 76.139700 57.515300 40.655900 0
M  V30 2 C 74.692500 57.257700 41.111000 0
M  V30 3 C 74.605700 56.970800 42.609000 0 CFG=1
M  V30 4 C 73.271200 57.436800 43.229300 0
M  V30 5 C 74.877600 55.481400 42.808200 0 CFG=1
M  V30 6 C 75.470600 55.256700 44.212100 0
M  V30 7 C 73.591000 54.673900 42.451200 0
M  V30 8 H 76.151600 58.056600 39.724700 0
M  V30 9 H 76.685700 56.580300 40.518600 0
M  V30 10 H 76.713100 58.139400 41.333100 0
M  V30 11 H 74.013000 58.057800 40.892600 0
M  V30 12 H 74.274700 56.453600 40.510900 0
M  V30 13 H 75.386400 57.552000 43.101300 0
M  V30 14 H 72.472500 57.403300 42.499600 0
M  V30 15 H 72.968100 56.834500 44.085500 0
M  V30 16 H 73.316700 58.457800 43.575700 0
M  V30 17 H 75.670700 55.194200 42.117300 0
M  V30 18 H 74.712000 55.093400 44.979100 0
M  V30 19 H 76.171000 54.436200 44.233000 0
M  V30 20 H 76.073500 56.105200 44.524000 0
M  V30 21 H 73.065600 54.412600 43.324600 0
M  V30 22 H 72.873900 55.255600 41.869000 0
M  V30 23 R 73.733500 53.343100 41.760300 0
M  V30 END ATOM
M  V30 BEGIN BOND
M  V30 1 1 2 1
M  V30 2 1 3 2
M  V30 3 1 4 3
M  V30 4 1 5 3
M  V30 5 1 6 5
M  V30 6 1 7 5
M  V30 7 1 8 1
M  V30 8 1 9 1
M  V30 9 1 10 1
M  V30 10 1 11 2
M  V30 11 1 12 2
M  V30 12 1 3 13 CFG=1
M  V30 13 1 14 4
M  V30 14 1 15 4
M  V30 15 1 16 4
M  V30 16 1 5 17 CFG=3
M  V30 17 1 18 6
M  V30 18 1 19 6
M  V30 19 1 20 6
M  V30 20 1 21 7
M  V30 21 1 22 7
M  V30 22 1 23 7
M  V30 END BOND
M  V30 END CTAB
M  END
$$$$
R-group 135 (780-1)
     RDKit          3D

  0  0  0  0  0  0  0  0  0  0999 V3000
M  V30 BEGIN CTAB
M  V30 COUNTS 16 15 0 0 1
M  V30 BEGIN ATOM
M  V30 1 C 72.873400 58.171800 40.510000 0
M  V30 2 O 73.257800 56.872800 40.099200 0
M  V30 3 C 74.665200 56.744700 39.955500 0
M  V30 4 C 75.386400 56.614700 41.313700 0
M  V30 5 O 75.221800 55.311100 41.840100 0
M  V30 6 C 73.986800 55.058600 42.498900 0
M  V30 7 H 71.796000 58.301100 40.524700 0
M  V30 8 H 73.254900 58.439200 41.494800 0
M  V30 9 H 73.272100 58.857900 39.768000 0
M  V30 10 H 75.058700 57.586500 39.388200 0
M  V30 11 H 74.871800 55.881000 39.331100 0
M  V30 12 H 75.097100 57.372900 42.040900 0
M  V30 13 H 76.457200 56.743400 41.148400 0
M  V30 14 H 73.179400 55.685300 42.137200 0
M  V30 15 H 74.089000 55.309100 43.553900 0
M  V30 16 R 73.615000 53.574900 42.308500 0
M  V30 END ATOM
M  V30 BEGIN BOND
M  V30 1 1 2 1
M  V30 2 1 3 2
M  V30 3 1 4 3
M  V30 4 1 5 4
M  V30 5 1 6 5
M  V30 6 1 7 1
M  V30 7 1 8 1
M  V30 8 1 9 1
M  V30 9 1 10 3
M  V30 10 1 11 3
M  V30 11 1 12 4
M  V30 12 1 13 4
M  V30 13 1 14 6
M  V30 14 1 15 6
M  V30 15 1 16 6
M  V30 END BOND
M  V30 END CTAB
M  END
$$$$
R-group 136 (25436-3)
     RDKit          3D

  0  0  0  0  0  0  0  0  0  0999 V3000
M  V30 BEGIN CTAB
M  V30 COUNTS 19 19 0 0 1
M  V30 BEGIN ATOM
M  V30 1 C 73.241900 54.264800 41.540200 0 CFG=2
M  V30 2 C 72.498400 54.945200 40.369300 0
M  V30 3 C 73.139500 56.325400 40.235300 0
M  V30 4 C 74.358300 56.320100 41.179000 0 CFG=1
M  V30 5 O 75.490500 56.858000 40.529000 0
M  V30 6 C 74.148200 57.089900 42.474300 0
M  V30 7 F 75.323900 57.256700 43.081600 0
M  V30 8 F 73.641900 58.224200 42.107600 0
M  V30 9 F 73.271800 56.559900 43.324300 0
M  V30 10 C 74.644600 54.891500 41.527400 0
M  V30 11 H 72.732900 54.563400 42.455700 0
M  V30 12 H 72.654100 54.455100 39.416900 0
M  V30 13 H 71.422800 54.977500 40.524900 0
M  V30 14 H 73.435700 56.503400 39.203400 0
M  V30 15 H 72.427700 57.109100 40.481200 0
M  V30 16 H 75.164100 54.814800 42.482400 0
M  V30 17 H 75.310500 54.461000 40.788900 0
M  V30 18 H 75.372200 57.791600 40.456600 0
M  V30 19 R 73.264900 52.736100 41.616300 0
M  V30 END ATOM
M  V30 BEGIN BOND
M  V30 1 1 2 1
M  V30 2 1 3 2
M  V30 3 1 4 3
M  V30 4 1 4 5 CFG=3
M  V30 5 1 6 4
M  V30 6 1 7 6
M  V30 7 1 8 6
M  V30 8 1 9 6
M  V30 9 1 10 1
M  V30 10 1 10 4
M  V30 11 1 1 11 CFG=1
M  V30 12 1 12 2
M  V30 13 1 13 2
M  V30 14 1 14 3
M  V30 15 1 15 3
M  V30 16 1 16 10
M  V30 17 1 17 10
M  V30 18 1 18 5
M  V30 19 1 19 1
M  V30 END BOND
M  V30 END CTAB
M  END
$$$$
R-group 137 (2420-1)
     RDKit          3D

  0  0  0  0  0  0  0  0  0  0999 V3000
M  V30 BEGIN CTAB
M  V30 COUNTS 17 17 0 0 1
M  V30 BEGIN ATOM
M  V30 1 C 73.782800 54.887800 42.304600 0
M  V30 2 N 75.221700 55.117400 42.265400 0
M  V30 3 C 75.672700 55.883100 43.414600 0
M  V30 4 C 75.379600 57.300300 42.986100 0
M  V30 5 C 75.454100 57.257800 41.456700 0
M  V30 6 F 76.447500 58.013800 40.974700 0
M  V30 7 F 74.286500 57.657400 40.950100 0
M  V30 8 C 75.670200 55.831400 41.082400 0
M  V30 9 H 73.255800 55.537400 41.607900 0
M  V30 10 H 73.392100 55.143000 43.291200 0
M  V30 11 H 75.198800 55.580900 44.343900 0
M  V30 12 H 76.737400 55.752500 43.586800 0
M  V30 13 H 74.377300 57.587800 43.309400 0
M  V30 14 H 76.071900 58.017700 43.423400 0
M  V30 15 H 76.729800 55.659100 40.913000 0
M  V30 16 H 75.126300 55.593200 40.172200 0
M  V30 17 R 73.512000 53.399200 42.023700 0
M  V30 END ATOM
M  V30 BEGIN BOND
M  V30 1 1 2 1
M  V30 2 1 3 2
M  V30 3 1 4 3
M  V30 4 1 5 4
M  V30 5 1 6 5
M  V30 6 1 7 5
M  V30 7 1 8 2
M  V30 8 1 8 5
M  V30 9 1 9 1
M  V30 10 1 10 1
M  V30 11 1 11 3
M  V30 12 1 12 3
M  V30 13 1 13 4
M  V30 14 1 14 4
M  V30 15 1 15 8
M  V30 16 1 16 8
M  V30 17 1 17 1
M  V30 END BOND
M  V30 END CTAB
M  END
$$$$
R-group 138 (21633-1)
     RDKit          3D

  0  0  0  0  0  0  0  0  0  0999 V3000
M  V30 BEGIN CTAB
M  V30 COUNTS 13 13 0 0 1
M  V30 BEGIN ATOM
M  V30 1 N 73.406100 54.331700 42.124800 0
M  V30 2 C 74.370600 55.054900 41.565300 0
M  V30 3 O 75.272200 54.647100 40.871300 0
M  V30 4 C 74.051900 56.458100 41.537900 0
M  V30 5 C 73.616200 57.037900 40.341800 0
M  V30 6 N 72.872200 58.058000 40.647400 0
M  V30 7 N 72.914300 58.202500 41.985700 0
M  V30 8 C 73.672000 57.233800 42.585600 0
M  V30 9 H 73.656400 56.674100 39.325000 0
M  V30 10 H 73.701000 57.103000 43.659800 0
M  V30 11 H 72.698200 54.817600 42.658200 0
M  V30 12 H 72.393000 58.927000 42.459500 0
M  V30 13 R 73.298100 52.901300 42.067400 0
M  V30 END ATOM
M  V30 BEGIN BOND
M  V30 1 1 2 1
M  V30 2 2 3 2
M  V30 3 1 4 2
M  V30 4 1 5 4
M  V30 5 2 6 5
M  V30 6 1 7 6
M  V30 7 2 8 4
M  V30 8 1 8 7
M  V30 9 1 9 5
M  V30 10 1 10 8
M  V30 11 1 11 1
M  V30 12 1 12 7
M  V30 13 1 13 1
M  V30 END BOND
M  V30 END CTAB
M  END
$$$$
R-group 139 (76-1)
     RDKit          3D

  0  0  0  0  0  0  0  0  0  0999 V3000
M  V30 BEGIN CTAB
M  V30 COUNTS 12 12 0 0 1
M  V30 BEGIN ATOM
M  V30 1 C 73.520300 54.718200 42.782100 0
M  V30 2 N 74.160300 55.623100 41.885500 0
M  V30 3 C 75.432300 56.128600 42.048500 0
M  V30 4 C 75.687000 56.858000 40.924000 0
M  V30 5 N 74.565600 56.857800 40.094300 0
M  V30 6 C 73.675400 56.152900 40.757500 0
M  V30 7 H 72.501500 55.078200 42.924600 0
M  V30 8 H 74.072100 54.812600 43.723800 0
M  V30 9 H 76.052300 55.898300 42.902200 0
M  V30 10 H 76.583700 57.393400 40.645800 0
M  V30 11 H 72.682200 55.968500 40.378400 0
M  V30 12 R 73.487900 53.251800 42.284400 0
M  V30 END ATOM
M  V30 BEGIN BOND
M  V30 1 1 2 1
M  V30 2 1 3 2
M  V30 3 2 4 3
M  V30 4 1 5 4
M  V30 5 1 6 2
M  V30 6 2 6 5
M  V30 7 1 7 1
M  V30 8 1 8 1
M  V30 9 1 9 3
M  V30 10 1 10 4
M  V30 11 1 11 6
M  V30 12 1 12 1
M  V30 END BOND
M  V30 END CTAB
M  END
$$$$
R-group 140 (7036-1)
     RDKit          3D

  0  0  0  0  0  0  0  0  0  0999 V3000
M  V30 BEGIN CTAB
M  V30 COUNTS 13 13 0 0 1
M  V30 BEGIN ATOM
M  V30 1 C 73.707100 54.831700 41.605600 0
M  V30 2 C 73.848300 55.605100 42.769800 0
M  V30 3 N 73.875500 56.936400 42.789000 0
M  V30 4 N 74.002600 57.518900 41.615500 0
M  V30 5 C 74.056600 56.832700 40.476100 0
M  V30 6 C 74.438300 57.643400 39.284200 0
M  V30 7 C 73.791000 55.505600 40.385100 0
M  V30 8 H 73.719900 55.169800 43.726000 0
M  V30 9 H 74.466500 56.910000 38.439800 0
M  V30 10 H 73.669600 58.348600 39.044400 0
M  V30 11 H 75.425000 58.046000 39.334200 0
M  V30 12 H 73.755600 55.108900 39.397600 0
M  V30 13 R 73.457200 53.341400 41.613200 0
M  V30 END ATOM
M  V30 BEGIN BOND
M  V30 1 2 2 1
M  V30 2 1 3 2
M  V30 3 2 4 3
M  V30 4 1 5 4
M  V30 5 1 6 5
M  V30 6 1 7 1
M  V30 7 2 7 5
M  V30 8 1 8 2
M  V30 9 1 9 6
M  V30 10 1 10 6
M  V30 11 1 11 6
M  V30 12 1 12 7
M  V30 13 1 13 1
M  V30 END BOND
M  V30 END CTAB
M  END
$$$$
R-group 141 (3345-1)
     RDKit          3D

  0  0  0  0  0  0  0  0  0  0999 V3000
M  V30 BEGIN CTAB
M  V30 COUNTS 8 7 0 0 1
M  V30 BEGIN ATOM
M  V30 1 N 74.472200 55.249700 42.676700 0
M  V30 2 C 73.496900 56.323100 42.568000 0
M  V30 3 C 73.370300 56.851800 41.203100 0
M  V30 4 N 73.273500 57.256600 40.126800 0
M  V30 5 H 74.640000 55.131800 43.665800 0
M  V30 6 H 73.816600 57.151200 43.199000 0
M  V30 7 H 72.527800 55.989900 42.934800 0
M  V30 8 R 73.983400 53.965000 42.168600 0
M  V30 END ATOM
M  V30 BEGIN BOND
M  V30 1 1 2 1
M  V30 2 1 3 2
M  V30 3 3 4 3
M  V30 4 1 5 1
M  V30 5 1 6 2
M  V30 6 1 7 2
M  V30 7 1 8 1
M  V30 END BOND
M  V30 END CTAB
M  END
$$$$
R-group 142 (6017-1)
     RDKit          3D

  0  0  0  0  0  0  0  0  0  0999 V3000
M  V30 BEGIN CTAB
M  V30 COUNTS 18 17 0 0 1
M  V30 BEGIN ATOM
M  V30 1 C 73.565400 55.347900 41.883900 0 CFG=1
M  V30 2 C 72.997500 55.908200 43.182100 0
M  V30 3 C 74.921400 56.033500 41.685900 0
M  V30 4 O 75.672400 56.058300 42.655300 0
M  V30 5 N 75.213700 56.701200 40.547500 0
M  V30 6 C 74.325100 56.805600 39.380500 0
M  V30 7 C 76.473400 57.457100 40.455200 0
M  V30 8 H 72.872300 55.740400 41.148400 0
M  V30 9 H 72.878800 56.992300 43.151700 0
M  V30 10 H 72.006100 55.485000 43.324700 0
M  V30 11 H 73.672200 55.658800 44.009900 0
M  V30 12 H 73.673200 55.947900 39.240800 0
M  V30 13 H 73.698300 57.694600 39.456600 0
M  V30 14 H 74.872000 56.858400 38.446100 0
M  V30 15 H 76.779600 57.900200 41.403800 0
M  V30 16 H 77.258500 56.787400 40.124900 0
M  V30 17 H 76.468000 58.268700 39.727000 0
M  V30 18 R 73.498100 53.772700 41.780100 0
M  V30 END ATOM
M  V30 BEGIN BOND
M  V30 1 1 2 1
M  V30 2 1 3 1
M  V30 3 2 4 3
M  V30 4 1 5 3
M  V30 5 1 6 5
M  V30 6 1 7 5
M  V30 7 1 1 8 CFG=3
M  V30 8 1 9 2
M  V30 9 1 10 2
M  V30 10 1 11 2
M  V30 11 1 12 6
M  V30 12 1 13 6
M  V30 13 1 14 6
M  V30 14 1 15 7
M  V30 15 1 16 7
M  V30 16 1 17 7
M  V30 17 1 18 1
M  V30 END BOND
M  V30 END CTAB
M  END
$$$$
R-group 143 (725-1)
     RDKit          3D

  0  0  0  0  0  0  0  0  0  0999 V3000
M  V30 BEGIN CTAB
M  V30 COUNTS 12 12 0 0 1
M  V30 BEGIN ATOM
M  V30 1 C 73.389900 54.628900 42.489700 0
M  V30 2 C 74.282000 55.630500 41.886700 0
M  V30 3 C 74.379500 56.197300 40.633200 0
M  V30 4 N 75.594100 56.858200 40.526300 0
M  V30 5 C 76.083800 56.858600 41.758800 0
M  V30 6 N 75.355600 56.137500 42.609100 0
M  V30 7 H 72.350600 54.857900 42.415300 0
M  V30 8 H 73.674100 54.663300 43.502800 0
M  V30 9 H 73.727200 56.056500 39.776000 0
M  V30 10 H 76.990500 57.393300 42.022200 0
M  V30 11 H 75.560100 56.008200 43.579300 0
M  V30 12 R 73.542100 53.199800 41.928700 0
M  V30 END ATOM
M  V30 BEGIN BOND
M  V30 1 1 2 1
M  V30 2 2 3 2
M  V30 3 1 4 3
M  V30 4 2 5 4
M  V30 5 1 6 2
M  V30 6 1 6 5
M  V30 7 1 7 1
M  V30 8 1 8 1
M  V30 9 1 9 3
M  V30 10 1 10 5
M  V30 11 1 11 6
M  V30 12 1 12 1
M  V30 END BOND
M  V30 END CTAB
M  END
$$$$
R-group 144 (39351-1)
     RDKit          3D

  0  0  0  0  0  0  0  0  0  0999 V3000
M  V30 BEGIN CTAB
M  V30 COUNTS 16 16 0 0 1
M  V30 BEGIN ATOM
M  V30 1 O 72.882100 54.116300 42.123300 0
M  V30 2 C 73.760200 55.142700 41.892300 0
M  V30 3 C 74.871800 55.278800 41.107200 0
M  V30 4 N 75.364900 56.537600 41.332800 0
M  V30 5 C 76.571600 57.132300 40.821900 0
M  V30 6 N 74.594100 57.225900 42.187700 0
M  V30 7 C 73.673400 56.378000 42.550800 0
M  V30 8 C 72.738900 56.709800 43.651000 0
M  V30 9 H 75.376500 54.605800 40.438900 0
M  V30 10 H 77.030800 56.439400 40.126500 0
M  V30 11 H 76.362400 58.057000 40.295100 0
M  V30 12 H 77.266000 57.321300 41.642400 0
M  V30 13 H 71.865300 56.057800 43.721500 0
M  V30 14 H 73.269500 56.455800 44.527300 0
M  V30 15 H 72.472200 57.765100 43.687000 0
M  V30 16 R 73.261800 52.844700 41.687000 0
M  V30 END ATOM
M  V30 BEGIN BOND
M  V30 1 1 2 1
M  V30 2 2 3 2
M  V30 3 1 4 3
M  V30 4 1 5 4
M  V30 5 1 6 4
M  V30 6 1 7 2
M  V30 7 2 7 6
M  V30 8 1 8 7
M  V30 9 1 9 3
M  V30 10 1 10 5
M  V30 11 1 11 5
M  V30 12 1 12 5
M  V30 13 1 13 8
M  V30 14 1 14 8
M  V30 15 1 15 8
M  V30 16 1 16 1
M  V30 END BOND
M  V30 END CTAB
M  END
$$$$
R-group 145 (11114-1)
     RDKit          3D

  0  0  0  0  0  0  0  0  0  0999 V3000
M  V30 BEGIN CTAB
M  V30 COUNTS 14 13 0 0 1
M  V30 BEGIN ATOM
M  V30 1 C 73.528400 55.028500 42.520900 0
M  V30 2 N 74.130800 56.080100 41.698100 0
M  V30 3 C 73.232300 56.864100 40.842000 0
M  V30 4 C 75.365900 56.505900 41.987400 0
M  V30 5 N 76.071800 56.859000 40.924900 0
M  V30 6 O 75.871300 56.458300 43.098000 0
M  V30 7 H 72.489700 55.257600 42.704500 0
M  V30 8 H 73.955700 55.075200 43.520000 0
M  V30 9 H 72.730400 57.632300 41.431400 0
M  V30 10 H 73.740300 57.364500 40.018100 0
M  V30 11 H 72.473000 56.229800 40.391300 0
M  V30 12 H 75.653400 56.825100 40.009600 0
M  V30 13 H 77.026700 57.155800 41.048600 0
M  V30 14 R 73.647100 53.601400 41.910600 0
M  V30 END ATOM
M  V30 BEGIN BOND
M  V30 1 1 2 1
M  V30 2 1 3 2
M  V30 3 1 4 2
M  V30 4 1 5 4
M  V30 5 2 6 4
M  V30 6 1 7 1
M  V30 7 1 8 1
M  V30 8 1 9 3
M  V30 9 1 10 3
M  V30 10 1 11 3
M  V30 11 1 12 5
M  V30 12 1 13 5
M  V30 13 1 14 1
M  V30 END BOND
M  V30 END CTAB
M  END
$$$$
R-group 146 (12653-1)
     RDKit          3D

  0  0  0  0  0  0  0  0  0  0999 V3000
M  V30 BEGIN CTAB
M  V30 COUNTS 16 16 0 0 1
M  V30 BEGIN ATOM
M  V30 1 C 74.871600 55.052200 42.332000 0
M  V30 2 N 74.237200 56.159700 41.678300 0
M  V30 3 C 74.100700 56.294000 40.317700 0
M  V30 4 C 73.272300 57.336200 40.106100 0
M  V30 5 C 73.017100 57.990800 41.346200 0
M  V30 6 C 72.129400 59.184600 41.547800 0
M  V30 7 C 73.672200 57.257500 42.297500 0
M  V30 8 H 75.089900 55.338900 43.361900 0
M  V30 9 H 75.833300 54.910300 41.842300 0
M  V30 10 H 74.518300 55.599800 39.612000 0
M  V30 11 H 72.916200 57.621400 39.128900 0
M  V30 12 H 72.051800 59.720100 40.606100 0
M  V30 13 H 71.143600 58.858000 41.846200 0
M  V30 14 H 72.472300 59.860700 42.322800 0
M  V30 15 H 73.708600 57.371200 43.370200 0
M  V30 16 R 74.040700 53.737500 42.291000 0
M  V30 END ATOM
M  V30 BEGIN BOND
M  V30 1 1 2 1
M  V30 2 1 3 2
M  V30 3 2 4 3
M  V30 4 1 5 4
M  V30 5 1 6 5
M  V30 6 1 7 2
M  V30 7 2 7 5
M  V30 8 1 8 1
M  V30 9 1 9 1
M  V30 10 1 10 3
M  V30 11 1 11 4
M  V30 12 1 12 6
M  V30 13 1 13 6
M  V30 14 1 14 6
M  V30 15 1 15 7
M  V30 16 1 16 1
M  V30 END BOND
M  V30 END CTAB
M  END
$$$$
R-group 147 (43152-2)
     RDKit          3D

  0  0  0  0  0  0  0  0  0  0999 V3000
M  V30 BEGIN CTAB
M  V30 COUNTS 19 19 0 0 1
M  V30 BEGIN ATOM
M  V30 1 C 73.745000 54.380800 41.510500 0 CFG=2
M  V30 2 C 72.913100 55.315600 42.310700 0 CFG=1
M  V30 3 C 73.562900 56.391500 43.100600 0
M  V30 4 C 74.910100 56.647200 42.624800 0
M  V30 5 N 75.967000 56.855600 42.215700 0
M  V30 6 C 72.871600 55.314300 40.751300 0
M  V30 7 C 71.552200 54.896500 40.138100 0
M  V30 8 C 73.546800 56.372800 39.878000 0
M  V30 9 H 74.797700 54.569100 41.359200 0
M  V30 10 H 72.060700 54.860800 42.819500 0
M  V30 11 H 73.667100 56.074500 44.124700 0
M  V30 12 H 72.985600 57.333200 43.052400 0
M  V30 13 H 71.718300 54.402000 39.174700 0
M  V30 14 H 70.989200 54.196000 40.796200 0
M  V30 15 H 70.872200 55.767400 40.086900 0
M  V30 16 H 73.548800 55.999800 38.849000 0
M  V30 17 H 72.976600 57.310200 39.908800 0
M  V30 18 H 74.579200 56.556700 40.201800 0
M  V30 19 R 73.463900 52.960000 41.655900 0
M  V30 END ATOM
M  V30 BEGIN BOND
M  V30 1 1 2 1
M  V30 2 1 3 2
M  V30 3 1 4 3
M  V30 4 3 5 4
M  V30 5 1 6 1
M  V30 6 1 6 2
M  V30 7 1 7 6
M  V30 8 1 8 6
M  V30 9 1 1 9 CFG=3
M  V30 10 1 2 10 CFG=1
M  V30 11 1 11 3
M  V30 12 1 12 3
M  V30 13 1 13 7
M  V30 14 1 14 7
M  V30 15 1 15 7
M  V30 16 1 16 8
M  V30 17 1 17 8
M  V30 18 1 18 8
M  V30 19 1 19 1
M  V30 END BOND
M  V30 END CTAB
M  END
$$$$
R-group 148 (12656-1)
     RDKit          3D

  0  0  0  0  0  0  0  0  0  0999 V3000
M  V30 BEGIN CTAB
M  V30 COUNTS 15 15 0 0 1
M  V30 BEGIN ATOM
M  V30 1 C 73.118700 54.195400 42.306800 0
M  V30 2 N 73.332600 55.001200 41.132100 0
M  V30 3 N 72.471800 54.858500 40.118200 0
M  V30 4 C 72.726100 55.860600 39.325700 0
M  V30 5 C 73.858000 56.611000 39.724900 0
M  V30 6 C 74.177300 56.071600 40.935000 0
M  V30 7 C 75.105300 56.580000 41.972900 0
M  V30 8 F 74.424200 57.333100 42.819100 0
M  V30 9 F 75.669100 55.657600 42.718800 0
M  V30 10 F 76.101000 57.255300 41.412500 0
M  V30 11 H 72.066600 54.296000 42.575000 0
M  V30 12 H 73.668400 54.613200 43.149800 0
M  V30 13 H 72.026700 56.003500 38.524900 0
M  V30 14 H 74.271100 57.496500 39.264500 0
M  V30 15 R 73.440400 52.713100 42.086100 0
M  V30 END ATOM
M  V30 BEGIN BOND
M  V30 1 1 2 1
M  V30 2 1 3 2
M  V30 3 2 4 3
M  V30 4 1 5 4
M  V30 5 1 6 2
M  V30 6 2 6 5
M  V30 7 1 7 6
M  V30 8 1 8 7
M  V30 9 1 9 7
M  V30 10 1 10 7
M  V30 11 1 11 1
M  V30 12 1 12 1
M  V30 13 1 13 4
M  V30 14 1 14 5
M  V30 15 1 15 1
M  V30 END BOND
M  V30 END CTAB
M  END
$$$$
R-group 149 (30913-1)
     RDKit          3D

  0  0  0  0  0  0  0  0  0  0999 V3000
M  V30 BEGIN CTAB
M  V30 COUNTS 12 12 0 0 1
M  V30 BEGIN ATOM
M  V30 1 C 74.101500 54.684200 42.004800 0
M  V30 2 C 74.872000 55.450800 42.925300 0
M  V30 3 C 74.731600 56.726300 42.470700 0
M  V30 4 N 73.935800 56.655100 41.350500 0
M  V30 5 C 73.224700 57.662900 40.637400 0
M  V30 6 F 73.262600 58.800700 41.324000 0
M  V30 7 F 73.693200 57.821500 39.399400 0
M  V30 8 N 73.671300 55.405900 41.003500 0
M  V30 9 H 75.366200 55.136000 43.833500 0
M  V30 10 H 75.056200 57.657300 42.911100 0
M  V30 11 H 72.180000 57.377300 40.526300 0
M  V30 12 R 73.675300 53.252500 42.060700 0
M  V30 END ATOM
M  V30 BEGIN BOND
M  V30 1 1 2 1
M  V30 2 2 3 2
M  V30 3 1 4 3
M  V30 4 1 5 4
M  V30 5 1 6 5
M  V30 6 1 7 5
M  V30 7 2 8 1
M  V30 8 1 8 4
M  V30 9 1 9 2
M  V30 10 1 10 3
M  V30 11 1 11 5
M  V30 12 1 12 1
M  V30 END BOND
M  V30 END CTAB
M  END
$$$$
R-group 150 (22611-1)
     RDKit          3D

  0  0  0  0  0  0  0  0  0  0999 V3000
M  V30 BEGIN CTAB
M  V30 COUNTS 15 15 0 0 1
M  V30 BEGIN ATOM
M  V30 1 C 73.987500 54.971400 41.627500 0
M  V30 2 S 73.272000 55.844700 40.141100 0
M  V30 3 O 73.271600 57.278000 40.451700 0
M  V30 4 O 73.929100 55.397300 38.922000 0
M  V30 5 C 71.482500 55.254100 40.063900 0
M  V30 6 C 70.630700 56.142700 39.183200 0
M  V30 7 C 70.979800 54.751400 38.724900 0
M  V30 8 H 73.640600 55.496400 42.517300 0
M  V30 9 H 75.064200 55.136500 41.575500 0
M  V30 10 H 71.116500 54.695900 40.924400 0
M  V30 11 H 69.604600 56.334600 39.489100 0
M  V30 12 H 71.117100 56.953600 38.650000 0
M  V30 13 H 71.698800 54.603100 37.930900 0
M  V30 14 H 70.180100 54.014500 38.746400 0
M  V30 15 R 73.678500 53.459000 41.767600 0
M  V30 END ATOM
M  V30 BEGIN BOND
M  V30 1 1 2 1
M  V30 2 2 3 2
M  V30 3 2 4 2
M  V30 4 1 5 2
M  V30 5 1 6 5
M  V30 6 1 7 5
M  V30 7 1 7 6
M  V30 8 1 8 1
M  V30 9 1 9 1
M  V30 10 1 10 5
M  V30 11 1 11 6
M  V30 12 1 12 6
M  V30 13 1 13 7
M  V30 14 1 14 7
M  V30 15 1 15 1
M  V30 END BOND
M  V30 END CTAB
M  END
$$$$
R-group 151 (24806-1)
     RDKit          3D

  0  0  0  0  0  0  0  0  0  0999 V3000
M  V30 BEGIN CTAB
M  V30 COUNTS 25 24 0 0 1
M  V30 BEGIN ATOM
M  V30 1 C 71.454800 56.333500 39.252000 0
M  V30 2 O 72.787000 56.463200 39.723800 0
M  V30 3 C 72.979100 57.690800 40.425200 0
M  V30 4 C 74.112900 57.712200 41.460900 0
M  V30 5 C 74.187200 56.693100 42.604100 0
M  V30 6 C 75.536900 56.948300 43.324700 0
M  V30 7 C 73.030600 56.811300 43.641500 0
M  V30 8 C 74.284600 55.329000 41.939500 0
M  V30 9 O 75.272300 55.083900 41.255800 0
M  V30 10 N 73.288900 54.459400 42.125500 0
M  V30 11 H 71.386000 55.523900 38.525800 0
M  V30 12 H 71.085800 57.257600 38.792000 0
M  V30 13 H 70.788700 56.059000 40.071400 0
M  V30 14 H 73.271900 58.433400 39.678400 0
M  V30 15 H 72.072700 58.055200 40.900700 0
M  V30 16 H 75.057500 57.657900 40.915600 0
M  V30 17 H 74.067100 58.689800 41.925100 0
M  V30 18 H 75.572200 57.953200 43.730100 0
M  V30 19 H 75.715100 56.227800 44.124300 0
M  V30 20 H 76.391700 56.875600 42.644900 0
M  V30 21 H 72.872800 57.840100 43.966800 0
M  V30 22 H 72.077600 56.420900 43.325200 0
M  V30 23 H 73.221900 56.205600 44.521500 0
M  V30 24 H 72.527800 54.764200 42.712700 0
M  V30 25 R 73.343800 53.047800 41.845100 0
M  V30 END ATOM
M  V30 BEGIN BOND
M  V30 1 1 2 1
M  V30 2 1 3 2
M  V30 3 1 4 3
M  V30 4 1 5 4
M  V30 5 1 6 5
M  V30 6 1 7 5
M  V30 7 1 8 5
M  V30 8 2 9 8
M  V30 9 1 10 8
M  V30 10 1 11 1
M  V30 11 1 12 1
M  V30 12 1 13 1
M  V30 13 1 14 3
M  V30 14 1 15 3
M  V30 15 1 16 4
M  V30 16 1 17 4
M  V30 17 1 18 6
M  V30 18 1 19 6
M  V30 19 1 20 6
M  V30 20 1 21 7
M  V30 21 1 22 7
M  V30 22 1 23 7
M  V30 23 1 24 10
M  V30 24 1 25 10
M  V30 END BOND
M  V30 END CTAB
M  END
$$$$
R-group 152 (7596-2)
     RDKit          3D

  0  0  0  0  0  0  0  0  0  0999 V3000
M  V30 BEGIN CTAB
M  V30 COUNTS 15 14 0 0 1
M  V30 BEGIN ATOM
M  V30 1 C 73.982000 55.170300 42.467100 0
M  V30 2 C 75.469200 55.579100 42.687300 0 CFG=2
M  V30 3 C 76.030400 55.275400 44.105000 0
M  V30 4 C 75.696900 57.051000 42.288500 0
M  V30 5 O 76.072100 57.102700 40.924800 0
M  V30 6 H 73.395600 55.481600 43.324800 0
M  V30 7 H 73.579000 55.791300 41.666500 0
M  V30 8 H 76.071300 54.997800 41.994200 0
M  V30 9 H 75.282300 55.258000 44.892500 0
M  V30 10 H 76.472000 54.287500 44.125200 0
M  V30 11 H 76.851400 55.935300 44.383500 0
M  V30 12 H 76.486000 57.519900 42.872900 0
M  V30 13 H 74.803800 57.657700 42.453200 0
M  V30 14 H 76.870400 56.612200 40.804100 0
M  V30 15 R 73.651800 53.687800 42.109000 0
M  V30 END ATOM
M  V30 BEGIN BOND
M  V30 1 1 2 1
M  V30 2 1 3 2
M  V30 3 1 4 2
M  V30 4 1 5 4
M  V30 5 1 6 1
M  V30 6 1 7 1
M  V30 7 1 2 8 CFG=3
M  V30 8 1 9 3
M  V30 9 1 10 3
M  V30 10 1 11 3
M  V30 11 1 12 4
M  V30 12 1 13 4
M  V30 13 1 14 5
M  V30 14 1 15 1
M  V30 END BOND
M  V30 END CTAB
M  END
$$$$
R-group 153 (13709-1)
     RDKit          3D

  0  0  0  0  0  0  0  0  0  0999 V3000
M  V30 BEGIN CTAB
M  V30 COUNTS 12 12 0 0 1
M  V30 BEGIN ATOM
M  V30 1 N 74.179000 54.757700 41.667500 0
M  V30 2 C 75.159800 55.403300 41.006400 0
M  V30 3 N 75.293700 56.684900 41.325000 0
M  V30 4 C 74.313400 56.840100 42.292500 0
M  V30 5 C 73.966800 58.058000 43.009800 0
M  V30 6 F 72.872200 57.827300 43.722300 0
M  V30 7 C 73.672300 55.673100 42.524700 0
M  V30 8 H 75.840900 54.935400 40.318300 0
M  V30 9 H 74.744300 58.359500 43.722500 0
M  V30 10 H 73.710100 58.856000 42.307100 0
M  V30 11 H 72.882800 55.440900 43.224100 0
M  V30 12 R 73.744700 53.391400 41.706200 0
M  V30 END ATOM
M  V30 BEGIN BOND
M  V30 1 1 2 1
M  V30 2 2 3 2
M  V30 3 1 4 3
M  V30 4 1 5 4
M  V30 5 1 6 5
M  V30 6 1 7 1
M  V30 7 2 7 4
M  V30 8 1 8 2
M  V30 9 1 9 5
M  V30 10 1 10 5
M  V30 11 1 11 7
M  V30 12 1 12 1
M  V30 END BOND
M  V30 END CTAB
M  END
$$$$
R-group 154 (12552-1)
     RDKit          3D

  0  0  0  0  0  0  0  0  0  0999 V3000
M  V30 BEGIN CTAB
M  V30 COUNTS 19 18 0 0 1
M  V30 BEGIN ATOM
M  V30 1 C 69.130300 55.639100 38.130300 0
M  V30 2 C 70.181800 56.619600 38.661400 0
M  V30 3 C 71.386200 55.907200 39.281000 0
M  V30 4 C 72.536400 56.834400 39.727500 0
M  V30 5 N 73.718600 56.063700 40.091200 0
M  V30 6 S 74.218500 55.628200 41.688500 0
M  V30 7 O 73.569200 56.518300 42.658300 0
M  V30 8 O 75.672200 55.658000 41.606400 0
M  V30 9 H 68.284400 56.174400 37.698400 0
M  V30 10 H 69.545300 54.993600 37.355800 0
M  V30 11 H 68.746800 55.002100 38.927700 0
M  V30 12 H 69.713700 57.258000 39.408100 0
M  V30 13 H 70.516600 57.257800 37.844800 0
M  V30 14 H 71.766300 55.191900 38.551000 0
M  V30 15 H 71.025900 55.323100 40.124700 0
M  V30 16 H 72.245000 57.496600 40.540400 0
M  V30 17 H 72.872200 57.469100 38.907300 0
M  V30 18 H 74.477000 56.085000 39.411200 0
M  V30 19 R 73.660800 53.843500 41.935600 0
M  V30 END ATOM
M  V30 BEGIN BOND
M  V30 1 1 2 1
M  V30 2 1 3 2
M  V30 3 1 4 3
M  V30 4 1 5 4
M  V30 5 1 6 5
M  V30 6 2 7 6
M  V30 7 2 8 6
M  V30 8 1 9 1
M  V30 9 1 10 1
M  V30 10 1 11 1
M  V30 11 1 12 2
M  V30 12 1 13 2
M  V30 13 1 14 3
M  V30 14 1 15 3
M  V30 15 1 16 4
M  V30 16 1 17 4
M  V30 17 1 18 5
M  V30 18 1 19 6
M  V30 END BOND
M  V30 END CTAB
M  END
$$$$
R-group 155 (16462-1)
     RDKit          3D

  0  0  0  0  0  0  0  0  0  0999 V3000
M  V30 BEGIN CTAB
M  V30 COUNTS 22 22 0 0 1
M  V30 BEGIN ATOM
M  V30 1 O 73.763200 54.875100 42.007600 0
M  V30 2 C 73.509300 55.658100 43.154900 0
M  V30 3 C 74.019200 57.086500 42.998700 0
M  V30 4 C 75.547500 57.071200 43.189900 0
M  V30 5 C 76.209100 56.392500 42.008200 0
M  V30 6 C 75.759600 56.996500 40.683000 0
M  V30 7 F 76.472900 58.106600 40.502900 0
M  V30 8 F 76.072200 56.165000 39.724800 0
M  V30 9 C 74.251400 57.256500 40.469100 0
M  V30 10 C 73.544800 57.786600 41.715800 0
M  V30 11 H 72.433700 55.658400 43.324700 0
M  V30 12 H 74.072300 55.247700 43.998500 0
M  V30 13 H 73.571500 57.662000 43.799800 0
M  V30 14 H 75.962100 58.058000 43.324800 0
M  V30 15 H 75.845100 56.541500 44.094600 0
M  V30 16 H 77.272100 56.520000 42.124500 0
M  V30 17 H 76.048200 55.318500 42.019400 0
M  V30 18 H 74.070500 57.891000 39.599400 0
M  V30 19 H 73.774100 56.322300 40.178900 0
M  V30 20 H 72.472800 57.657800 41.595400 0
M  V30 21 H 73.675200 58.858000 41.809400 0
M  V30 22 R 73.467900 53.497700 42.098400 0
M  V30 END ATOM
M  V30 BEGIN BOND
M  V30 1 1 2 1
M  V30 2 1 3 2
M  V30 3 1 4 3
M  V30 4 1 5 4
M  V30 5 1 6 5
M  V30 6 1 7 6
M  V30 7 1 8 6
M  V30 8 1 9 6
M  V30 9 1 10 3
M  V30 10 1 10 9
M  V30 11 1 11 2
M  V30 12 1 12 2
M  V30 13 1 13 3
M  V30 14 1 14 4
M  V30 15 1 15 4
M  V30 16 1 16 5
M  V30 17 1 17 5
M  V30 18 1 18 9
M  V30 19 1 19 9
M  V30 20 1 20 10
M  V30 21 1 21 10
M  V30 22 1 22 1
M  V30 END BOND
M  V30 END CTAB
M  END
$$$$
R-group 156 (5072-1)
     RDKit          3D

  0  0  0  0  0  0  0  0  0  0999 V3000
M  V30 BEGIN CTAB
M  V30 COUNTS 9 8 0 0 1
M  V30 BEGIN ATOM
M  V30 1 O 74.082400 55.128100 42.092400 0
M  V30 2 C 73.627800 55.899200 43.200000 0
M  V30 3 C 73.952200 57.386000 43.011700 0
M  V30 4 F 75.240000 57.631900 43.248500 0
M  V30 5 F 73.609400 57.809800 41.795700 0
M  V30 6 H 72.548600 55.789400 43.310300 0
M  V30 7 H 74.078700 55.540600 44.122600 0
M  V30 8 H 73.391100 57.990300 43.722600 0
M  V30 9 R 73.685100 53.756700 42.107200 0
M  V30 END ATOM
M  V30 BEGIN BOND
M  V30 1 1 2 1
M  V30 2 1 3 2
M  V30 3 1 4 3
M  V30 4 1 5 3
M  V30 5 1 6 2
M  V30 6 1 7 2
M  V30 7 1 8 3
M  V30 8 1 9 1
M  V30 END BOND
M  V30 END CTAB
M  END
$$$$
R-group 157 (7508-2)
     RDKit          3D

  0  0  0  0  0  0  0  0  0  0999 V3000
M  V30 BEGIN CTAB
M  V30 COUNTS 14 14 0 0 1
M  V30 BEGIN ATOM
M  V30 1 N 73.198500 54.378400 42.126500 0
M  V30 2 C 74.113400 55.332100 42.317700 0
M  V30 3 O 75.272300 55.245700 41.926800 0
M  V30 4 C 73.568100 56.554500 42.943900 0 CFG=1
M  V30 5 C 74.470400 57.744200 42.881200 0
M  V30 6 C 73.272300 57.659600 41.958500 0 CFG=1
M  V30 7 C 73.273200 57.244600 40.576200 0
M  V30 8 N 73.273600 56.858700 39.489200 0
M  V30 9 H 72.876500 56.451100 43.780200 0
M  V30 10 H 75.452800 57.651800 42.422100 0
M  V30 11 H 74.424200 58.456300 43.704400 0
M  V30 12 H 72.415300 58.297000 42.157100 0
M  V30 13 H 72.272000 54.548000 42.488700 0
M  V30 14 R 73.429500 53.062000 41.619900 0
M  V30 END ATOM
M  V30 BEGIN BOND
M  V30 1 1 2 1
M  V30 2 2 3 2
M  V30 3 1 4 2
M  V30 4 1 5 4
M  V30 5 1 6 4
M  V30 6 1 6 5
M  V30 7 1 7 6
M  V30 8 3 8 7
M  V30 9 1 4 9 CFG=1
M  V30 10 1 10 5
M  V30 11 1 11 5
M  V30 12 1 6 12 CFG=1
M  V30 13 1 13 1
M  V30 14 1 14 1
M  V30 END BOND
M  V30 END CTAB
M  END
$$$$
R-group 158 (22341-13)
     RDKit          3D

  0  0  0  0  0  0  0  0  0  0999 V3000
M  V30 BEGIN CTAB
M  V30 COUNTS 18 18 0 0 1
M  V30 BEGIN ATOM
M  V30 1 C 73.743800 55.256400 41.779200 0 CFG=1
M  V30 2 O 73.272500 55.951300 42.924400 0
M  V30 3 C 73.873300 57.223100 42.986200 0 CFG=2
M  V30 4 C 73.151300 58.191700 42.024300 0
M  V30 5 C 75.341000 56.837700 42.642900 0 CFG=1
M  V30 6 O 76.072200 56.268200 43.719400 0
M  V30 7 C 75.171600 55.783500 41.570200 0 CFG=2
M  V30 8 O 75.225300 56.457600 40.338100 0
M  V30 9 H 73.108500 55.643600 40.981400 0
M  V30 10 H 73.673800 57.658200 43.958700 0
M  V30 11 H 73.557500 59.188200 42.124400 0
M  V30 12 H 73.205700 57.915300 40.974300 0
M  V30 13 H 72.094400 58.286700 42.274500 0
M  V30 14 H 75.949400 57.658000 42.281200 0
M  V30 15 H 75.948400 55.023600 41.603400 0
M  V30 16 H 76.336400 56.982200 44.282000 0
M  V30 17 H 74.526900 57.092800 40.309000 0
M  V30 18 R 73.516000 53.717100 41.819500 0
M  V30 END ATOM
M  V30 BEGIN BOND
M  V30 1 1 2 1
M  V30 2 1 3 2
M  V30 3 1 4 3
M  V30 4 1 5 3
M  V30 5 1 6 5
M  V30 6 1 7 1
M  V30 7 1 7 5
M  V30 8 1 8 7
M  V30 9 1 1 9 CFG=3
M  V30 10 1 3 10 CFG=1
M  V30 11 1 11 4
M  V30 12 1 12 4
M  V30 13 1 13 4
M  V30 14 1 5 14 CFG=3
M  V30 15 1 7 15 CFG=3
M  V30 16 1 16 6
M  V30 17 1 17 8
M  V30 18 1 18 1
M  V30 END BOND
M  V30 END CTAB
M  END
$$$$
R-group 159 (24583-1)
     RDKit          3D

  0  0  0  0  0  0  0  0  0  0999 V3000
M  V30 BEGIN CTAB
M  V30 COUNTS 17 16 0 0 1
M  V30 BEGIN ATOM
M  V30 1 C 76.355500 57.257800 40.890800 0
M  V30 2 O 75.047600 56.856200 40.515900 0
M  V30 3 C 73.971700 57.384800 41.282600 0
M  V30 4 C 73.917600 56.919400 42.734200 0 CFG=1
M  V30 5 O 72.878500 57.658200 43.324800 0
M  V30 6 C 73.551700 55.455000 42.919300 0
M  V30 7 O 73.919200 54.711000 41.787700 0
M  V30 8 H 77.050200 56.890300 40.134100 0
M  V30 9 H 76.472300 58.341400 40.925700 0
M  V30 10 H 76.646700 56.834900 41.852500 0
M  V30 11 H 73.038200 57.139800 40.772900 0
M  V30 12 H 74.026600 58.457500 41.324800 0
M  V30 13 H 74.852100 57.151100 43.245500 0
M  V30 14 H 72.475400 55.340800 43.047500 0
M  V30 15 H 74.072400 55.092900 43.800000 0
M  V30 16 H 72.737700 57.321900 44.196600 0
M  V30 17 R 73.554500 53.352200 41.846600 0
M  V30 END ATOM
M  V30 BEGIN BOND
M  V30 1 1 2 1
M  V30 2 1 3 2
M  V30 3 1 4 3
M  V30 4 1 5 4
M  V30 5 1 6 4
M  V30 6 1 7 6
M  V30 7 1 8 1
M  V30 8 1 9 1
M  V30 9 1 10 1
M  V30 10 1 11 3
M  V30 11 1 12 3
M  V30 12 1 4 13 CFG=1
M  V30 13 1 14 6
M  V30 14 1 15 6
M  V30 15 1 16 5
M  V30 16 1 17 7
M  V30 END BOND
M  V30 END CTAB
M  END
$$$$
R-group 160 (6596-1)
     RDKit          3D

  0  0  0  0  0  0  0  0  0  0999 V3000
M  V30 BEGIN CTAB
M  V30 COUNTS 12 11 0 0 1
M  V30 BEGIN ATOM
M  V30 1 C 74.265200 55.270800 41.792200 0
M  V30 2 O 74.873000 55.769700 40.846800 0
M  V30 3 N 73.937800 55.974600 42.878100 0
M  V30 4 C 74.131500 57.399900 43.079300 0
M  V30 5 C 72.872400 57.986900 43.730900 0
M  V30 6 F 72.072900 58.466400 42.781400 0
M  V30 7 F 72.218800 57.119700 44.516000 0
M  V30 8 H 75.004800 57.565900 43.716300 0
M  V30 9 H 74.338100 57.916200 42.140500 0
M  V30 10 H 73.112400 58.804600 44.395700 0
M  V30 11 H 73.412400 55.494500 43.604700 0
M  V30 12 R 73.816600 53.791000 41.793600 0
M  V30 END ATOM
M  V30 BEGIN BOND
M  V30 1 2 2 1
M  V30 2 1 3 1
M  V30 3 1 4 3
M  V30 4 1 5 4
M  V30 5 1 6 5
M  V30 6 1 7 5
M  V30 7 1 8 4
M  V30 8 1 9 4
M  V30 9 1 10 5
M  V30 10 1 11 3
M  V30 11 1 12 1
M  V30 END BOND
M  V30 END CTAB
M  END
$$$$
R-group 161 (39030-1)
     RDKit          3D

  0  0  0  0  0  0  0  0  0  0999 V3000
M  V30 BEGIN CTAB
M  V30 COUNTS 10 10 0 0 1
M  V30 BEGIN ATOM
M  V30 1 C 73.822400 54.476200 41.578200 0
M  V30 2 N 74.581100 55.167600 42.434500 0
M  V30 3 N 74.583700 56.494800 42.141000 0
M  V30 4 C 73.770600 56.739900 41.119300 0
M  V30 5 C 73.246200 58.058000 40.858100 0
M  V30 6 F 71.992200 58.056400 40.524600 0
M  V30 7 F 73.377500 58.857700 41.910000 0
M  V30 8 S 73.272700 55.378900 40.171500 0
M  V30 9 H 73.672200 58.457900 39.943900 0
M  V30 10 R 73.511200 53.041600 41.777400 0
M  V30 END ATOM
M  V30 BEGIN BOND
M  V30 1 2 2 1
M  V30 2 1 3 2
M  V30 3 2 4 3
M  V30 4 1 5 4
M  V30 5 1 6 5
M  V30 6 1 7 5
M  V30 7 1 8 1
M  V30 8 1 8 4
M  V30 9 1 9 5
M  V30 10 1 10 1
M  V30 END BOND
M  V30 END CTAB
M  END
$$$$
R-group 162 (18102-1)
     RDKit          3D

  0  0  0  0  0  0  0  0  0  0999 V3000
M  V30 BEGIN CTAB
M  V30 COUNTS 13 13 0 0 1
M  V30 BEGIN ATOM
M  V30 1 C 73.983300 55.259600 42.166600 0
M  V30 2 C 75.477000 55.403100 42.437700 0
M  V30 3 C 76.042500 56.443300 41.601100 0
M  V30 4 N 76.472200 57.258000 40.924700 0
M  V30 5 C 73.031500 56.110200 42.990700 0
M  V30 6 C 73.272200 56.470400 41.547900 0
M  V30 7 H 76.051500 54.544400 42.124700 0
M  V30 8 H 75.672200 55.611100 43.489700 0
M  V30 9 H 72.096200 55.658100 43.324700 0
M  V30 10 H 73.468400 56.779800 43.724700 0
M  V30 11 H 73.786900 57.419600 41.419500 0
M  V30 12 H 72.573000 56.275900 40.738200 0
M  V30 13 R 73.555700 53.805000 41.829800 0
M  V30 END ATOM
M  V30 BEGIN BOND
M  V30 1 1 2 1
M  V30 2 1 3 2
M  V30 3 3 4 3
M  V30 4 1 5 1
M  V30 5 1 6 1
M  V30 6 1 6 5
M  V30 7 1 7 2
M  V30 8 1 8 2
M  V30 9 1 9 5
M  V30 10 1 10 5
M  V30 11 1 11 6
M  V30 12 1 12 6
M  V30 13 1 13 1
M  V30 END BOND
M  V30 END CTAB
M  END
$$$$
R-group 163 (4952-2)
     RDKit          3D

  0  0  0  0  0  0  0  0  0  0999 V3000
M  V30 BEGIN CTAB
M  V30 COUNTS 23 22 0 0 1
M  V30 BEGIN ATOM
M  V30 1 C 72.933300 57.813900 40.578100 0
M  V30 2 C 74.081200 57.257900 39.716200 0
M  V30 3 C 75.537300 57.183100 40.242900 0
M  V30 4 C 75.796100 56.935500 41.722100 0
M  V30 5 C 75.534200 55.472400 42.092600 0
M  V30 6 C 74.038700 55.104700 42.140700 0 CFG=2
M  V30 7 C 73.447800 55.859900 43.323400 0
M  V30 8 H 71.962500 57.658100 40.124500 0
M  V30 9 H 72.818300 57.384700 41.542900 0
M  V30 10 H 73.048600 58.858000 40.765100 0
M  V30 11 H 74.136700 57.974100 38.924700 0
M  V30 12 H 73.793100 56.309200 39.262900 0
M  V30 13 H 76.090900 58.058000 39.933300 0
M  V30 14 H 76.045800 56.383100 39.724800 0
M  V30 15 H 75.256400 57.655400 42.334200 0
M  V30 16 H 76.850800 57.137000 41.910300 0
M  V30 17 H 75.981300 55.264200 43.064600 0
M  V30 18 H 76.069900 54.857900 41.380300 0
M  V30 19 H 73.544500 55.461500 41.259400 0
M  V30 20 H 74.072300 55.561900 44.131500 0
M  V30 21 H 73.565500 56.938900 43.329400 0
M  V30 22 H 72.382100 55.662000 43.437600 0
M  V30 23 R 73.686200 53.591200 42.114800 0
M  V30 END ATOM
M  V30 BEGIN BOND
M  V30 1 1 2 1
M  V30 2 1 3 2
M  V30 3 1 4 3
M  V30 4 1 5 4
M  V30 5 1 6 5
M  V30 6 1 7 6
M  V30 7 1 8 1
M  V30 8 1 9 1
M  V30 9 1 10 1
M  V30 10 1 11 2
M  V30 11 1 12 2
M  V30 12 1 13 3
M  V30 13 1 14 3
M  V30 14 1 15 4
M  V30 15 1 16 4
M  V30 16 1 17 5
M  V30 17 1 18 5
M  V30 18 1 6 19 CFG=3
M  V30 19 1 20 7
M  V30 20 1 21 7
M  V30 21 1 22 7
M  V30 22 1 23 6
M  V30 END BOND
M  V30 END CTAB
M  END
$$$$
R-group 164 (13972-1)
     RDKit          3D

  0  0  0  0  0  0  0  0  0  0999 V3000
M  V30 BEGIN CTAB
M  V30 COUNTS 16 17 0 0 1
M  V30 BEGIN ATOM
M  V30 1 C 73.842000 54.311400 41.948300 0
M  V30 2 C 73.620100 55.255000 41.009900 0
M  V30 3 C 73.948200 56.418200 41.728200 0
M  V30 4 C 73.804200 57.765100 41.281000 0
M  V30 5 C 72.906300 58.093000 40.124500 0
M  V30 6 C 72.630000 58.712800 41.506900 0
M  V30 7 N 74.579500 56.235000 42.857000 0
M  V30 8 N 74.531900 54.926600 42.954300 0
M  V30 9 H 73.156900 55.147200 40.039400 0
M  V30 10 H 74.850800 58.012500 41.324300 0
M  V30 11 H 73.321500 58.674900 39.284300 0
M  V30 12 H 72.249000 57.282800 39.807700 0
M  V30 13 H 71.685500 58.458000 41.991200 0
M  V30 14 H 72.871900 59.740200 41.724800 0
M  V30 15 H 74.858500 54.452400 43.787400 0
M  V30 16 R 73.538800 52.878300 41.967200 0
M  V30 END ATOM
M  V30 BEGIN BOND
M  V30 1 2 2 1
M  V30 2 1 3 2
M  V30 3 1 4 3
M  V30 4 1 5 4
M  V30 5 1 6 4
M  V30 6 1 6 5
M  V30 7 2 7 3
M  V30 8 1 8 1
M  V30 9 1 8 7
M  V30 10 1 9 2
M  V30 11 1 10 4
M  V30 12 1 11 5
M  V30 13 1 12 5
M  V30 14 1 13 6
M  V30 15 1 14 6
M  V30 16 1 15 8
M  V30 17 1 16 1
M  V30 END BOND
M  V30 END CTAB
M  END
$$$$
R-group 165 (7622-1)
     RDKit          3D

  0  0  0  0  0  0  0  0  0  0999 V3000
M  V30 BEGIN CTAB
M  V30 COUNTS 13 12 0 0 1
M  V30 BEGIN ATOM
M  V30 1 O 73.489600 54.935600 42.524300 0
M  V30 2 C 74.543400 55.883700 42.682800 0 CFG=2
M  V30 3 C 75.426400 55.547100 43.895100 0
M  V30 4 C 73.798900 57.206000 42.918500 0
M  V30 5 O 73.272500 57.659800 41.690000 0
M  V30 6 H 75.179700 55.982300 41.804600 0
M  V30 7 H 76.073500 56.386700 44.147300 0
M  V30 8 H 74.824700 55.257900 44.760400 0
M  V30 9 H 76.071900 54.701400 43.724600 0
M  V30 10 H 72.997200 57.086000 43.649500 0
M  V30 11 H 74.472000 57.970700 43.307000 0
M  V30 12 H 73.986000 57.777900 41.081800 0
M  V30 13 R 73.646200 53.743100 41.767700 0
M  V30 END ATOM
M  V30 BEGIN BOND
M  V30 1 1 2 1
M  V30 2 1 3 2
M  V30 3 1 4 2
M  V30 4 1 5 4
M  V30 5 1 2 6 CFG=3
M  V30 6 1 7 3
M  V30 7 1 8 3
M  V30 8 1 9 3
M  V30 9 1 10 4
M  V30 10 1 11 4
M  V30 11 1 12 5
M  V30 12 1 13 1
M  V30 END BOND
M  V30 END CTAB
M  END
$$$$
R-group 166 (19156-1)
     RDKit          3D

  0  0  0  0  0  0  0  0  0  0999 V3000
M  V30 BEGIN CTAB
M  V30 COUNTS 13 12 0 0 1
M  V30 BEGIN ATOM
M  V30 1 C 73.686900 55.238600 41.682900 0 CFG=2
M  V30 2 C 72.872500 55.927600 40.544900 0
M  V30 3 O 73.528500 55.973900 39.304200 0
M  V30 4 C 75.058200 55.927100 41.772400 0
M  V30 5 N 75.420200 56.457200 42.924600 0
M  V30 6 O 75.772600 56.067000 40.795500 0
M  V30 7 H 73.173200 55.505000 42.607000 0
M  V30 8 H 71.941200 55.394700 40.356400 0
M  V30 9 H 72.626900 56.955000 40.817700 0
M  V30 10 H 74.817500 56.373700 43.728700 0
M  V30 11 H 74.413400 56.287300 39.458000 0
M  V30 12 H 76.287600 56.970000 42.987200 0
M  V30 13 R 73.650600 53.662200 41.660800 0
M  V30 END ATOM
M  V30 BEGIN BOND
M  V30 1 1 2 1
M  V30 2 1 3 2
M  V30 3 1 4 1
M  V30 4 1 5 4
M  V30 5 2 6 4
M  V30 6 1 1 7 CFG=1
M  V30 7 1 8 2
M  V30 8 1 9 2
M  V30 9 1 10 5
M  V30 10 1 11 3
M  V30 11 1 12 5
M  V30 12 1 13 1
M  V30 END BOND
M  V30 END CTAB
M  END
$$$$
R-group 167 (13579-2)
     RDKit          3D

  0  0  0  0  0  0  0  0  0  0999 V3000
M  V30 BEGIN CTAB
M  V30 COUNTS 21 20 0 0 1
M  V30 BEGIN ATOM
M  V30 1 C 72.787900 58.672100 41.720500 0
M  V30 2 O 72.871700 58.061000 42.968200 0
M  V30 3 C 73.726300 57.052300 43.256800 0
M  V30 4 C 74.008500 55.995000 42.164000 0 CFG=2
M  V30 5 N 73.291500 54.764100 42.524400 0
M  V30 6 C 75.519900 55.822500 42.010400 0 CFG=1
M  V30 7 C 76.123400 56.788400 40.965000 0
M  V30 8 O 76.071200 56.057800 43.291300 0
M  V30 9 H 71.935500 59.354400 41.704000 0
M  V30 10 H 73.672500 59.250700 41.723400 0
M  V30 11 H 72.725300 58.035800 40.844200 0
M  V30 12 H 73.278100 56.576600 44.123800 0
M  V30 13 H 74.556000 57.691300 43.551600 0
M  V30 14 H 73.629600 56.289400 41.192800 0
M  V30 15 H 73.271600 54.674100 43.546700 0
M  V30 16 H 75.765000 54.814800 41.691200 0
M  V30 17 H 75.385500 57.145200 40.243700 0
M  V30 18 H 76.599200 57.649400 41.435300 0
M  V30 19 H 76.884200 56.271000 40.380600 0
M  V30 20 H 76.988700 55.820300 43.264700 0
M  V30 21 R 73.467700 53.484200 41.836800 0
M  V30 END ATOM
M  V30 BEGIN BOND
M  V30 1 1 2 1
M  V30 2 1 3 2
M  V30 3 1 4 3
M  V30 4 1 5 4
M  V30 5 1 6 4
M  V30 6 1 7 6
M  V30 7 1 8 6
M  V30 8 1 9 1
M  V30 9 1 10 1
M  V30 10 1 11 1
M  V30 11 1 12 3
M  V30 12 1 13 3
M  V30 13 1 4 14 CFG=3
M  V30 14 1 15 5
M  V30 15 1 6 16 CFG=3
M  V30 16 1 17 7
M  V30 17 1 18 7
M  V30 18 1 19 7
M  V30 19 1 20 8
M  V30 20 1 21 5
M  V30 END BOND
M  V30 END CTAB
M  END
$$$$
R-group 168 (6941-1)
     RDKit          3D

  0  0  0  0  0  0  0  0  0  0999 V3000
M  V30 BEGIN CTAB
M  V30 COUNTS 15 15 0 0 1
M  V30 BEGIN ATOM
M  V30 1 C 74.845000 55.064300 42.307200 0
M  V30 2 C 74.227000 56.148900 41.508700 0
M  V30 3 C 74.102300 56.212300 40.097100 0
M  V30 4 C 73.272300 57.258000 39.911700 0
M  V30 5 N 73.048900 57.844900 41.138900 0
M  V30 6 C 72.289100 59.047300 41.450700 0
M  V30 7 N 73.672200 57.175300 42.126500 0
M  V30 8 H 75.003900 55.397100 43.334400 0
M  V30 9 H 75.837700 54.893400 41.897100 0
M  V30 10 H 74.472100 55.558300 39.327000 0
M  V30 11 H 72.872600 57.657900 38.994300 0
M  V30 12 H 72.072300 59.609400 40.543000 0
M  V30 13 H 71.348200 58.858000 41.961400 0
M  V30 14 H 72.872300 59.658000 42.124700 0
M  V30 15 R 74.040700 53.737500 42.298100 0
M  V30 END ATOM
M  V30 BEGIN BOND
M  V30 1 1 2 1
M  V30 2 1 3 2
M  V30 3 2 4 3
M  V30 4 1 5 4
M  V30 5 1 6 5
M  V30 6 2 7 2
M  V30 7 1 7 5
M  V30 8 1 8 1
M  V30 9 1 9 1
M  V30 10 1 10 3
M  V30 11 1 11 4
M  V30 12 1 12 6
M  V30 13 1 13 6
M  V30 14 1 14 6
M  V30 15 1 15 1
M  V30 END BOND
M  V30 END CTAB
M  END
$$$$
R-group 169 (8047-1)
     RDKit          3D

  0  0  0  0  0  0  0  0  0  0999 V3000
M  V30 BEGIN CTAB
M  V30 COUNTS 19 19 0 0 1
M  V30 BEGIN ATOM
M  V30 1 C 73.750700 54.912600 41.960400 0 CFG=2
M  V30 2 C 73.082700 55.739500 43.070700 0
M  V30 3 C 75.257100 55.325900 41.960900 0
M  V30 4 C 75.452200 56.318200 40.835900 0
M  V30 5 C 74.194000 56.102300 40.054800 0
M  V30 6 O 74.068200 56.460300 38.917700 0
M  V30 7 N 73.278000 55.397200 40.671700 0
M  V30 8 C 71.919000 55.285400 40.123500 0
M  V30 9 H 73.672600 55.662100 43.984000 0
M  V30 10 H 73.012500 56.797600 42.818400 0
M  V30 11 H 72.074400 55.405500 43.324700 0
M  V30 12 H 75.607100 55.742100 42.911200 0
M  V30 13 H 75.906800 54.494100 41.723600 0
M  V30 14 H 75.501700 57.349200 41.189400 0
M  V30 15 H 76.327100 56.082300 40.206600 0
M  V30 16 H 71.523500 56.281100 39.920800 0
M  V30 17 H 71.924300 54.746000 39.175800 0
M  V30 18 H 71.199300 54.799600 40.776800 0
M  V30 19 R 73.551200 53.361800 42.106500 0
M  V30 END ATOM
M  V30 BEGIN BOND
M  V30 1 1 2 1
M  V30 2 1 3 1
M  V30 3 1 4 3
M  V30 4 1 5 4
M  V30 5 2 6 5
M  V30 6 1 7 1
M  V30 7 1 7 5
M  V30 8 1 8 7
M  V30 9 1 9 2
M  V30 10 1 10 2
M  V30 11 1 11 2
M  V30 12 1 12 3
M  V30 13 1 13 3
M  V30 14 1 14 4
M  V30 15 1 15 4
M  V30 16 1 16 8
M  V30 17 1 17 8
M  V30 18 1 18 8
M  V30 19 1 1 19 CFG=1
M  V30 END BOND
M  V30 END CTAB
M  END
$$$$
R-group 170 (2935-1)
     RDKit          3D

  0  0  0  0  0  0  0  0  0  0999 V3000
M  V30 BEGIN CTAB
M  V30 COUNTS 15 14 0 0 1
M  V30 BEGIN ATOM
M  V30 1 C 76.595600 57.271100 40.888100 0
M  V30 2 C 75.256100 56.559300 40.780500 0
M  V30 3 O 74.472200 56.857400 39.878000 0
M  V30 4 N 74.978300 55.653900 41.715000 0
M  V30 5 C 73.631300 55.174500 41.943800 0 CFG=2
M  V30 6 C 73.114600 55.916800 43.167700 0
M  V30 7 H 77.272200 56.898600 40.125400 0
M  V30 8 H 76.472300 58.341900 40.735700 0
M  V30 9 H 77.048800 57.128700 41.866900 0
M  V30 10 H 72.968300 55.512600 41.146900 0
M  V30 11 H 72.071300 55.658200 43.324800 0
M  V30 12 H 73.700100 55.658200 44.046600 0
M  V30 13 H 73.164000 56.998700 43.038000 0
M  V30 14 H 75.679400 55.433800 42.406000 0
M  V30 15 R 73.523200 53.622700 41.969500 0
M  V30 END ATOM
M  V30 BEGIN BOND
M  V30 1 1 2 1
M  V30 2 2 3 2
M  V30 3 1 4 2
M  V30 4 1 5 4
M  V30 5 1 6 5
M  V30 6 1 7 1
M  V30 7 1 8 1
M  V30 8 1 9 1
M  V30 9 1 5 10 CFG=3
M  V30 10 1 11 6
M  V30 11 1 12 6
M  V30 12 1 13 6
M  V30 13 1 14 4
M  V30 14 1 15 5
M  V30 END BOND
M  V30 END CTAB
M  END
$$$$
R-group 171 (44022-3)
     RDKit          3D

  0  0  0  0  0  0  0  0  0  0999 V3000
M  V30 BEGIN CTAB
M  V30 COUNTS 22 22 0 0 1
M  V30 BEGIN ATOM
M  V30 1 C 74.871300 57.437800 39.334900 0
M  V30 2 C 73.997700 57.457300 40.544300 0
M  V30 3 C 74.909700 56.870600 41.649400 0 CFG=2
M  V30 4 C 75.019700 55.339300 41.586800 0
M  V30 5 C 73.562800 54.808500 41.688900 0 CFG=2
M  V30 6 C 72.963100 55.450600 42.959000 0
M  V30 7 C 73.108400 56.959200 43.142900 0
M  V30 8 O 74.463800 57.246300 42.927400 0
M  V30 9 H 74.468600 58.015100 38.524700 0
M  V30 10 H 75.806800 57.889200 39.665600 0
M  V30 11 H 75.195400 56.448900 39.004600 0
M  V30 12 H 73.041900 56.971100 40.353800 0
M  V30 13 H 73.661900 58.461200 40.803500 0
M  V30 14 H 75.915100 57.284100 41.615600 0
M  V30 15 H 75.655300 55.042800 42.429500 0
M  V30 16 H 75.575100 54.976700 40.731700 0
M  V30 17 H 72.979300 55.095200 40.829500 0
M  V30 18 H 71.953200 55.159600 43.311400 0
M  V30 19 H 73.678400 55.124300 43.714200 0
M  V30 20 H 72.467600 57.562200 42.509500 0
M  V30 21 H 72.858000 57.241600 44.168900 0
M  V30 22 R 73.398100 53.293000 41.676300 0
M  V30 END ATOM
M  V30 BEGIN BOND
M  V30 1 1 2 1
M  V30 2 1 3 2
M  V30 3 1 4 3
M  V30 4 1 5 4
M  V30 5 1 6 5
M  V30 6 1 7 6
M  V30 7 1 8 3
M  V30 8 1 8 7
M  V30 9 1 9 1
M  V30 10 1 10 1
M  V30 11 1 11 1
M  V30 12 1 12 2
M  V30 13 1 13 2
M  V30 14 1 3 14 CFG=3
M  V30 15 1 15 4
M  V30 16 1 16 4
M  V30 17 1 5 17 CFG=3
M  V30 18 1 18 6
M  V30 19 1 19 6
M  V30 20 1 20 7
M  V30 21 1 21 7
M  V30 22 1 22 5
M  V30 END BOND
M  V30 END CTAB
M  END
$$$$
R-group 172 (28445-1)
     RDKit          3D

  0  0  0  0  0  0  0  0  0  0999 V3000
M  V30 BEGIN CTAB
M  V30 COUNTS 12 12 0 0 1
M  V30 BEGIN ATOM
M  V30 1 C 74.070500 54.741500 41.669700 0
M  V30 2 C 73.672200 55.684800 42.525400 0
M  V30 3 C 74.158700 56.857600 41.973900 0
M  V30 4 C 73.753600 58.189700 42.436900 0
M  V30 5 O 72.472200 58.584500 42.124600 0
M  V30 6 N 74.976800 56.640800 40.958800 0
M  V30 7 O 74.940900 55.255800 40.766700 0
M  V30 8 H 72.966300 55.568500 43.324600 0
M  V30 9 H 74.098800 58.446700 43.436700 0
M  V30 10 H 74.070500 58.858600 41.724300 0
M  V30 11 H 71.867200 57.975200 42.519000 0
M  V30 12 R 73.703100 53.322000 41.662900 0
M  V30 END ATOM
M  V30 BEGIN BOND
M  V30 1 2 2 1
M  V30 2 1 3 2
M  V30 3 1 4 3
M  V30 4 1 5 4
M  V30 5 2 6 3
M  V30 6 1 7 1
M  V30 7 1 7 6
M  V30 8 1 8 2
M  V30 9 1 9 4
M  V30 10 1 10 4
M  V30 11 1 11 5
M  V30 12 1 12 1
M  V30 END BOND
M  V30 END CTAB
M  END
$$$$
R-group 173 (39873-3)
     RDKit          3D

  0  0  0  0  0  0  0  0  0  0999 V3000
M  V30 BEGIN CTAB
M  V30 COUNTS 16 16 0 0 1
M  V30 BEGIN ATOM
M  V30 1 C 76.829400 57.576700 40.827400 0
M  V30 2 O 75.741400 56.682000 40.855400 0
M  V30 3 C 74.692600 57.143600 41.680600 0
M  V30 4 C 73.671500 56.049700 41.694800 0 CFG=2
M  V30 5 C 72.913600 55.735200 42.942700 0
M  V30 6 C 74.027800 54.828100 42.508500 0 CFG=1
M  V30 7 H 77.596100 57.258700 40.124800 0
M  V30 8 H 76.472300 58.540300 40.489900 0
M  V30 9 H 77.272200 57.657900 41.818900 0
M  V30 10 H 74.225500 58.057900 41.324700 0
M  V30 11 H 75.055800 57.321600 42.694500 0
M  V30 12 H 73.139500 55.926300 40.756200 0
M  V30 13 H 71.960500 55.221000 42.933600 0
M  V30 14 H 73.083100 56.371200 43.808300 0
M  V30 15 H 74.950200 54.924800 43.080300 0
M  V30 16 R 73.671400 53.398800 42.125100 0
M  V30 END ATOM
M  V30 BEGIN BOND
M  V30 1 1 2 1
M  V30 2 1 3 2
M  V30 3 1 4 3
M  V30 4 1 5 4
M  V30 5 1 6 4
M  V30 6 1 6 5
M  V30 7 1 7 1
M  V30 8 1 8 1
M  V30 9 1 9 1
M  V30 10 1 10 3
M  V30 11 1 11 3
M  V30 12 1 4 12 CFG=3
M  V30 13 1 13 5
M  V30 14 1 14 5
M  V30 15 1 6 15 CFG=1
M  V30 16 1 16 6
M  V30 END BOND
M  V30 END CTAB
M  END
$$$$
R-group 174 (26623-1)
     RDKit          3D

  0  0  0  0  0  0  0  0  0  0999 V3000
M  V30 BEGIN CTAB
M  V30 COUNTS 21 20 0 0 1
M  V30 BEGIN ATOM
M  V30 1 C 73.287300 54.619900 41.579100 0 CFG=1
M  V30 2 C 72.861800 55.206000 42.927200 0
M  V30 3 O 74.618700 54.926200 41.211100 0
M  V30 4 C 74.936800 56.219400 40.703000 0
M  V30 5 C 74.471300 56.526500 39.274200 0
M  V30 6 C 76.473000 56.204800 40.697300 0
M  V30 7 C 74.362400 57.244500 41.646800 0
M  V30 8 H 72.583800 54.940300 40.814100 0
M  V30 9 H 71.957400 54.726800 43.315500 0
M  V30 10 H 73.692000 55.147300 43.638800 0
M  V30 11 H 72.578000 56.245900 42.928900 0
M  V30 12 H 74.876100 57.509500 39.014500 0
M  V30 13 H 73.386200 56.570900 39.187300 0
M  V30 14 H 74.869800 55.804500 38.558800 0
M  V30 15 H 76.853200 56.167800 41.714600 0
M  V30 16 H 76.795700 55.298300 40.193700 0
M  V30 17 H 77.071600 56.966800 40.147000 0
M  V30 18 H 74.572500 57.085300 42.701000 0
M  V30 19 H 74.871700 58.082000 41.454700 0
M  V30 20 H 73.312600 57.497800 41.440600 0
M  V30 21 R 73.297200 53.077500 41.655700 0
M  V30 END ATOM
M  V30 BEGIN BOND
M  V30 1 1 2 1
M  V30 2 1 3 1
M  V30 3 1 4 3
M  V30 4 1 5 4
M  V30 5 1 6 4
M  V30 6 1 7 4
M  V30 7 1 1 8 CFG=3
M  V30 8 1 9 2
M  V30 9 1 10 2
M  V30 10 1 11 2
M  V30 11 1 12 5
M  V30 12 1 13 5
M  V30 13 1 14 5
M  V30 14 1 15 6
M  V30 15 1 16 6
M  V30 16 1 17 6
M  V30 17 1 18 7
M  V30 18 1 19 7
M  V30 19 1 20 7
M  V30 20 1 21 1
M  V30 END BOND
M  V30 END CTAB
M  END
$$$$
R-group 175 (10600-2)
     RDKit          3D

  0  0  0  0  0  0  0  0  0  0999 V3000
M  V30 BEGIN CTAB
M  V30 COUNTS 22 23 0 0 1
M  V30 BEGIN ATOM
M  V30 1 C 73.647700 55.088100 41.685300 0 CFG=2
M  V30 2 C 73.178500 55.859900 40.434900 0
M  V30 3 C 71.818800 55.580400 39.738500 0
M  V30 4 C 71.708600 57.017600 39.474700 0
M  V30 5 C 72.690600 57.296200 40.591300 0
M  V30 6 C 75.124800 55.382300 41.968700 0
M  V30 7 C 75.602100 56.758800 42.316700 0
M  V30 8 C 75.588900 55.687800 43.376200 0
M  V30 9 H 73.074100 55.441300 42.547600 0
M  V30 10 H 73.974600 55.860700 39.688400 0
M  V30 11 H 71.818500 55.097500 38.763900 0
M  V30 12 H 71.086100 55.135500 40.415500 0
M  V30 13 H 72.154700 57.257900 38.494700 0
M  V30 14 H 70.678200 57.332000 39.576300 0
M  V30 15 H 72.210300 57.515100 41.528700 0
M  V30 16 H 73.422000 58.060200 40.378700 0
M  V30 17 H 75.810700 54.792500 41.378000 0
M  V30 18 H 76.553800 57.054100 41.890600 0
M  V30 19 H 74.841800 57.523200 42.394000 0
M  V30 20 H 74.822500 55.633500 44.134800 0
M  V30 21 H 76.509100 55.306800 43.759500 0
M  V30 22 R 73.378500 53.556000 41.607600 0
M  V30 END ATOM
M  V30 BEGIN BOND
M  V30 1 1 2 1
M  V30 2 1 3 2
M  V30 3 1 4 3
M  V30 4 1 5 2
M  V30 5 1 5 4
M  V30 6 1 6 1
M  V30 7 1 7 6
M  V30 8 1 8 6
M  V30 9 1 8 7
M  V30 10 1 1 9 CFG=1
M  V30 11 1 10 2
M  V30 12 1 11 3
M  V30 13 1 12 3
M  V30 14 1 13 4
M  V30 15 1 14 4
M  V30 16 1 15 5
M  V30 17 1 16 5
M  V30 18 1 17 6
M  V30 19 1 18 7
M  V30 20 1 19 7
M  V30 21 1 20 8
M  V30 22 1 21 8
M  V30 23 1 22 1
M  V30 END BOND
M  V30 END CTAB
M  END
$$$$
R-group 176 (37348-1)
     RDKit          3D

  0  0  0  0  0  0  0  0  0  0999 V3000
M  V30 BEGIN CTAB
M  V30 COUNTS 17 16 0 0 1
M  V30 BEGIN ATOM
M  V30 1 C 73.568800 54.902900 41.574900 0
M  V30 2 C 72.632600 55.418200 40.451000 0
M  V30 3 C 73.044300 55.452800 42.921900 0
M  V30 4 C 75.000300 55.438700 41.261900 0
M  V30 5 C 75.372200 56.795400 41.856000 0
M  V30 6 F 75.672300 56.663500 43.142100 0
M  V30 7 F 74.356400 57.650600 41.724600 0
M  V30 8 F 76.454100 57.257500 41.224400 0
M  V30 9 H 71.654000 54.938500 40.515800 0
M  V30 10 H 72.479800 56.495700 40.506700 0
M  V30 11 H 73.021300 55.221000 39.452000 0
M  V30 12 H 72.072600 55.019500 43.167900 0
M  V30 13 H 73.756000 55.258000 43.724700 0
M  V30 14 H 72.868700 56.522100 42.930000 0
M  V30 15 H 75.146600 55.511400 40.186800 0
M  V30 16 H 75.763900 54.753200 41.604300 0
M  V30 17 R 73.495000 53.332400 41.639700 0
M  V30 END ATOM
M  V30 BEGIN BOND
M  V30 1 1 2 1
M  V30 2 1 3 1
M  V30 3 1 4 1
M  V30 4 1 5 4
M  V30 5 1 6 5
M  V30 6 1 7 5
M  V30 7 1 8 5
M  V30 8 1 9 2
M  V30 9 1 10 2
M  V30 10 1 11 2
M  V30 11 1 12 3
M  V30 12 1 13 3
M  V30 13 1 14 3
M  V30 14 1 15 4
M  V30 15 1 16 4
M  V30 16 1 17 1
M  V30 END BOND
M  V30 END CTAB
M  END
$$$$
R-group 177 (44127-4)
     RDKit          3D

  0  0  0  0  0  0  0  0  0  0999 V3000
M  V30 BEGIN CTAB
M  V30 COUNTS 16 16 0 0 1
M  V30 BEGIN ATOM
M  V30 1 C 74.573200 54.998500 42.102700 0 CFG=2
M  V30 2 C 74.845800 55.715900 43.427600 0 CFG=1
M  V30 3 F 75.876700 55.258000 44.124900 0
M  V30 4 C 75.008200 57.166600 42.963900 0
M  V30 5 C 73.720200 57.332900 42.184600 0
M  V30 6 C 73.674700 56.012900 41.417900 0 CFG=1
M  V30 7 C 73.911800 56.253800 40.026800 0
M  V30 8 N 74.072200 56.454400 38.924700 0
M  V30 9 H 75.523100 54.943900 41.568800 0
M  V30 10 H 73.986300 55.658000 44.091900 0
M  V30 11 H 75.876300 57.257900 42.308100 0
M  V30 12 H 75.115800 57.925200 43.724700 0
M  V30 13 H 72.871600 57.413600 42.864300 0
M  V30 14 H 73.717300 58.214800 41.543500 0
M  V30 15 H 72.740500 55.522300 41.325700 0
M  V30 16 R 73.896900 53.599200 42.133500 0
M  V30 END ATOM
M  V30 BEGIN BOND
M  V30 1 1 2 1
M  V30 2 1 3 2
M  V30 3 1 4 2
M  V30 4 1 5 4
M  V30 5 1 6 1
M  V30 6 1 6 5
M  V30 7 1 7 6
M  V30 8 3 8 7
M  V30 9 1 1 9 CFG=3
M  V30 10 1 2 10 CFG=1
M  V30 11 1 11 4
M  V30 12 1 12 4
M  V30 13 1 13 5
M  V30 14 1 14 5
M  V30 15 1 6 15 CFG=3
M  V30 16 1 16 1
M  V30 END BOND
M  V30 END CTAB
M  END
$$$$
R-group 178 (20757-1)
     RDKit          3D

  0  0  0  0  0  0  0  0  0  0999 V3000
M  V30 BEGIN CTAB
M  V30 COUNTS 17 16 0 0 1
M  V30 BEGIN ATOM
M  V30 1 C 73.286900 54.666600 41.582600 0 CFG=1
M  V30 2 C 72.845000 55.239900 42.924800 0
M  V30 3 C 74.566300 55.279300 40.984700 0
M  V30 4 S 74.972200 56.855600 41.743400 0
M  V30 5 C 76.150100 57.523900 40.555400 0
M  V30 6 O 73.744500 57.658200 41.718300 0
M  V30 7 O 75.672500 56.586400 43.003400 0
M  V30 8 H 72.476000 54.926900 40.901700 0
M  V30 9 H 73.672100 55.258900 43.640900 0
M  V30 10 H 72.472700 56.256100 42.924800 0
M  V30 11 H 71.977800 54.681700 43.292000 0
M  V30 12 H 75.452300 54.659600 41.103900 0
M  V30 13 H 74.422300 55.474600 39.922800 0
M  V30 14 H 76.558400 58.458200 40.924600 0
M  V30 15 H 76.945800 56.815500 40.380400 0
M  V30 16 H 75.570600 57.658100 39.659800 0
M  V30 17 R 73.344000 53.126200 41.648300 0
M  V30 END ATOM
M  V30 BEGIN BOND
M  V30 1 1 2 1
M  V30 2 1 3 1
M  V30 3 1 4 3
M  V30 4 1 5 4
M  V30 5 2 6 4
M  V30 6 2 7 4
M  V30 7 1 1 8 CFG=3
M  V30 8 1 9 2
M  V30 9 1 10 2
M  V30 10 1 11 2
M  V30 11 1 12 3
M  V30 12 1 13 3
M  V30 13 1 14 5
M  V30 14 1 15 5
M  V30 15 1 16 5
M  V30 16 1 17 1
M  V30 END BOND
M  V30 END CTAB
M  END
$$$$
R-group 179 (39682-1)
     RDKit          3D

  0  0  0  0  0  0  0  0  0  0999 V3000
M  V30 BEGIN CTAB
M  V30 COUNTS 21 20 0 0 1
M  V30 BEGIN ATOM
M  V30 1 C 76.501200 57.730100 40.759300 0
M  V30 2 C 75.168400 57.201000 40.183100 0
M  V30 3 C 73.956700 57.340200 41.125700 0
M  V30 4 C 74.243200 56.949700 42.576900 0
M  V30 5 C 74.757500 55.510600 42.708700 0 CFG=1
M  V30 6 C 75.426900 55.336500 44.081800 0
M  V30 7 O 73.583500 54.724500 42.524700 0
M  V30 8 H 77.353700 57.530700 40.120700 0
M  V30 9 H 76.472200 58.798600 40.924800 0
M  V30 10 H 76.757000 57.264200 41.709400 0
M  V30 11 H 75.339700 56.165000 39.918400 0
M  V30 12 H 74.872400 57.658500 39.242100 0
M  V30 13 H 73.134000 56.739500 40.738500 0
M  V30 14 H 73.597400 58.368900 41.120400 0
M  V30 15 H 73.338700 57.070300 43.175400 0
M  V30 16 H 74.953000 57.657600 43.003500 0
M  V30 17 H 75.502300 55.280600 41.949000 0
M  V30 18 H 76.072700 56.183700 44.307000 0
M  V30 19 H 74.688300 55.248600 44.877300 0
M  V30 20 H 76.078900 54.475200 44.124600 0
M  V30 21 R 73.638600 53.432300 41.944900 0
M  V30 END ATOM
M  V30 BEGIN BOND
M  V30 1 1 2 1
M  V30 2 1 3 2
M  V30 3 1 4 3
M  V30 4 1 5 4
M  V30 5 1 6 5
M  V30 6 1 7 5
M  V30 7 1 8 1
M  V30 8 1 9 1
M  V30 9 1 10 1
M  V30 10 1 11 2
M  V30 11 1 12 2
M  V30 12 1 13 3
M  V30 13 1 14 3
M  V30 14 1 15 4
M  V30 15 1 16 4
M  V30 16 1 5 17 CFG=3
M  V30 17 1 18 6
M  V30 18 1 19 6
M  V30 19 1 20 6
M  V30 20 1 21 7
M  V30 END BOND
M  V30 END CTAB
M  END
$$$$
R-group 180 (17593-2)
     RDKit          3D

  0  0  0  0  0  0  0  0  0  0999 V3000
M  V30 BEGIN CTAB
M  V30 COUNTS 23 24 0 0 1
M  V30 BEGIN ATOM
M  V30 1 O 73.831600 54.479100 42.141800 0
M  V30 2 C 72.982600 55.366200 42.833300 0
M  V30 3 C 73.135100 56.711900 42.185300 0 CFG=1
M  V30 4 C 74.558500 57.195000 42.422500 0
M  V30 5 C 74.975600 57.486200 41.005200 0 CFG=1
M  V30 6 C 75.111900 56.196200 40.203100 0
M  V30 7 C 73.672400 55.903700 39.747400 0
M  V30 8 C 72.871700 56.823800 40.642200 0 CFG=2
M  V30 9 C 73.659500 58.057500 40.418400 0
M  V30 10 H 71.972000 54.959800 42.925200 0
M  V30 11 H 73.369500 55.658100 43.801900 0
M  V30 12 H 72.479000 57.409600 42.705500 0
M  V30 13 H 74.506600 58.064900 43.067000 0
M  V30 14 H 75.234800 56.478800 42.893200 0
M  V30 15 H 75.900500 58.058000 40.958400 0
M  V30 16 H 75.672000 56.456000 39.366400 0
M  V30 17 H 75.628700 55.395000 40.746400 0
M  V30 18 H 73.333800 54.887000 39.812600 0
M  V30 19 H 73.549600 56.174100 38.695600 0
M  V30 20 H 71.846400 56.902000 40.286000 0
M  V30 21 H 73.668600 58.364500 39.371000 0
M  V30 22 H 73.224200 58.858200 41.019900 0
M  V30 23 R 73.522400 53.115600 42.245300 0
M  V30 END ATOM
M  V30 BEGIN BOND
M  V30 1 1 2 1
M  V30 2 1 3 2
M  V30 3 1 4 3
M  V30 4 1 5 4
M  V30 5 1 6 5
M  V30 6 1 7 6
M  V30 7 1 8 3
M  V30 8 1 8 7
M  V30 9 1 9 5
M  V30 10 1 9 8
M  V30 11 1 10 2
M  V30 12 1 11 2
M  V30 13 1 3 12 CFG=1
M  V30 14 1 13 4
M  V30 15 1 14 4
M  V30 16 1 5 15 CFG=1
M  V30 17 1 16 6
M  V30 18 1 17 6
M  V30 19 1 18 7
M  V30 20 1 19 7
M  V30 21 1 8 20 CFG=1
M  V30 22 1 21 9
M  V30 23 1 22 9
M  V30 24 1 23 1
M  V30 END BOND
M  V30 END CTAB
M  END
$$$$
R-group 181 (2540-1)
     RDKit          3D

  0  0  0  0  0  0  0  0  0  0999 V3000
M  V30 BEGIN CTAB
M  V30 COUNTS 13 12 0 0 1
M  V30 BEGIN ATOM
M  V30 1 C 73.260000 54.684600 42.283100 0
M  V30 2 N 74.467000 55.294700 42.839700 0
M  V30 3 C 75.437900 55.535000 41.797200 0
M  V30 4 C 74.955800 56.633700 40.857700 0
M  V30 5 F 76.072500 57.258400 40.530700 0
M  V30 6 F 74.380300 56.196200 39.736400 0
M  V30 7 F 74.097600 57.445400 41.484400 0
M  V30 8 H 72.906100 55.268800 41.439500 0
M  V30 9 H 72.410500 54.749000 42.947800 0
M  V30 10 H 74.843300 54.692600 43.557800 0
M  V30 11 H 76.344800 55.860900 42.306600 0
M  V30 12 H 75.673000 54.635100 41.234600 0
M  V30 13 R 73.451200 53.214400 41.860900 0
M  V30 END ATOM
M  V30 BEGIN BOND
M  V30 1 1 2 1
M  V30 2 1 3 2
M  V30 3 1 4 3
M  V30 4 1 5 4
M  V30 5 1 6 4
M  V30 6 1 7 4
M  V30 7 1 8 1
M  V30 8 1 9 1
M  V30 9 1 10 2
M  V30 10 1 11 3
M  V30 11 1 12 3
M  V30 12 1 13 1
M  V30 END BOND
M  V30 END CTAB
M  END
$$$$
R-group 182 (6845-2)
     RDKit          3D

  0  0  0  0  0  0  0  0  0  0999 V3000
M  V30 BEGIN CTAB
M  V30 COUNTS 12 11 0 0 1
M  V30 BEGIN ATOM
M  V30 1 C 73.957200 54.845900 41.617200 0 CFG=1
M  V30 2 C 73.571600 55.454400 40.333200 0
M  V30 3 N 73.272300 55.930000 39.325000 0
M  V30 4 C 73.389200 55.610200 42.800900 0
M  V30 5 C 73.615500 57.108900 42.729600 0
M  V30 6 F 74.917500 57.257900 42.924700 0
M  V30 7 F 72.872200 57.658000 43.690500 0
M  V30 8 F 73.272800 57.689700 41.588200 0
M  V30 9 H 75.043300 54.954400 41.630200 0
M  V30 10 H 73.886000 55.259700 43.705500 0
M  V30 11 H 72.341300 55.363000 42.924800 0
M  V30 12 R 73.610500 53.347100 41.730500 0
M  V30 END ATOM
M  V30 BEGIN BOND
M  V30 1 1 2 1
M  V30 2 3 3 2
M  V30 3 1 4 1
M  V30 4 1 5 4
M  V30 5 1 6 5
M  V30 6 1 7 5
M  V30 7 1 8 5
M  V30 8 1 1 9 CFG=1
M  V30 9 1 10 4
M  V30 10 1 11 4
M  V30 11 1 12 1
M  V30 END BOND
M  V30 END CTAB
M  END
$$$$
R-group 183 (17663-1)
     RDKit          3D

  0  0  0  0  0  0  0  0  0  0999 V3000
M  V30 BEGIN CTAB
M  V30 COUNTS 20 20 0 0 1
M  V30 BEGIN ATOM
M  V30 1 O 73.327700 54.481000 41.460700 0
M  V30 2 C 74.061200 55.072400 40.395500 0
M  V30 3 C 73.682300 56.539300 40.284800 0
M  V30 4 C 74.367000 57.453100 41.293200 0
M  V30 5 C 74.272100 56.856900 42.658700 0
M  V30 6 N 75.272400 56.071200 43.094900 0
M  V30 7 O 73.272300 57.096300 43.324200 0
M  V30 8 C 73.540400 57.136200 38.934400 0
M  V30 9 C 72.303600 56.828100 39.723100 0
M  V30 10 H 75.138000 54.945700 40.505600 0
M  V30 11 H 73.747800 54.639800 39.452300 0
M  V30 12 H 75.407800 57.651900 41.014400 0
M  V30 13 H 73.860700 58.431500 41.325100 0
M  V30 14 H 76.074300 55.877700 42.511100 0
M  V30 15 H 73.899600 58.169100 38.924900 0
M  V30 16 H 73.834600 56.480900 38.118500 0
M  V30 17 H 71.708000 55.978700 39.404400 0
M  V30 18 H 71.750700 57.657800 40.127100 0
M  V30 19 H 75.237200 55.753400 44.073200 0
M  V30 20 R 73.385000 53.084300 41.662400 0
M  V30 END ATOM
M  V30 BEGIN BOND
M  V30 1 1 2 1
M  V30 2 1 3 2
M  V30 3 1 4 3
M  V30 4 1 5 4
M  V30 5 1 6 5
M  V30 6 2 7 5
M  V30 7 1 8 3
M  V30 8 1 9 3
M  V30 9 1 9 8
M  V30 10 1 10 2
M  V30 11 1 11 2
M  V30 12 1 12 4
M  V30 13 1 13 4
M  V30 14 1 14 6
M  V30 15 1 15 8
M  V30 16 1 16 8
M  V30 17 1 17 9
M  V30 18 1 18 9
M  V30 19 1 19 6
M  V30 20 1 20 1
M  V30 END BOND
M  V30 END CTAB
M  END
$$$$
R-group 184 (21688-2)
     RDKit          3D

  0  0  0  0  0  0  0  0  0  0999 V3000
M  V30 BEGIN CTAB
M  V30 COUNTS 19 19 0 0 1
M  V30 BEGIN ATOM
M  V30 1 N 73.673000 54.543600 42.318500 0
M  V30 2 C 75.028000 55.064200 42.149900 0
M  V30 3 C 74.948600 56.440500 41.523500 0 CFG=2
M  V30 4 C 76.332800 57.042700 41.226600 0
M  V30 5 N 74.173200 57.280900 42.404500 0
M  V30 6 C 73.270200 57.999100 41.725000 0
M  V30 7 O 72.472200 58.858000 42.124700 0
M  V30 8 N 73.212400 57.509500 40.493500 0
M  V30 9 C 74.064400 56.531600 40.283900 0
M  V30 10 O 74.072500 55.815900 39.292800 0
M  V30 11 H 73.308900 54.784000 43.237000 0
M  V30 12 H 75.509700 55.117800 43.127000 0
M  V30 13 H 75.665200 54.440000 41.531400 0
M  V30 14 H 76.862500 56.425200 40.501900 0
M  V30 15 H 76.276000 58.050700 40.812900 0
M  V30 16 H 76.936500 57.108500 42.124700 0
M  V30 17 H 74.380600 57.403700 43.383900 0
M  V30 18 H 72.536200 57.805800 39.809800 0
M  V30 19 R 73.551200 53.122600 42.100600 0
M  V30 END ATOM
M  V30 BEGIN BOND
M  V30 1 1 2 1
M  V30 2 1 3 2 CFG=1
M  V30 3 1 4 3
M  V30 4 1 5 3
M  V30 5 1 6 5
M  V30 6 2 7 6
M  V30 7 1 8 6
M  V30 8 1 9 3
M  V30 9 1 9 8
M  V30 10 2 10 9
M  V30 11 1 11 1
M  V30 12 1 12 2
M  V30 13 1 13 2
M  V30 14 1 14 4
M  V30 15 1 15 4
M  V30 16 1 16 4
M  V30 17 1 17 5
M  V30 18 1 18 8
M  V30 19 1 19 1
M  V30 END BOND
M  V30 END CTAB
M  END
$$$$
R-group 185 (40610-2)
     RDKit          3D

  0  0  0  0  0  0  0  0  0  0999 V3000
M  V30 BEGIN CTAB
M  V30 COUNTS 12 11 0 0 1
M  V30 BEGIN ATOM
M  V30 1 C 72.756700 58.535700 42.074400 0
M  V30 2 O 72.881900 57.953100 43.345600 0
M  V30 3 C 72.963500 56.546700 43.372300 0
M  V30 4 S 74.121700 55.799500 42.143900 0
M  V30 5 O 75.473200 55.981000 42.736300 0
M  V30 6 O 73.851200 56.350900 40.797000 0
M  V30 7 H 72.411000 59.561000 42.097000 0
M  V30 8 H 73.726000 58.516500 41.595500 0
M  V30 9 H 72.081600 57.958600 41.443900 0
M  V30 10 H 72.018600 56.046200 43.324900 0
M  V30 11 H 73.272200 56.253600 44.362100 0
M  V30 12 R 73.626300 54.001000 42.128600 0
M  V30 END ATOM
M  V30 BEGIN BOND
M  V30 1 1 2 1
M  V30 2 1 3 2
M  V30 3 1 4 3
M  V30 4 2 5 4
M  V30 5 2 6 4
M  V30 6 1 7 1
M  V30 7 1 8 1
M  V30 8 1 9 1
M  V30 9 1 10 3
M  V30 10 1 11 3
M  V30 11 1 12 4
M  V30 END BOND
M  V30 END CTAB
M  END
$$$$
R-group 186 (16849-2)
     RDKit          3D

  0  0  0  0  0  0  0  0  0  0999 V3000
M  V30 BEGIN CTAB
M  V30 COUNTS 12 12 0 0 1
M  V30 BEGIN ATOM
M  V30 1 C 74.958300 55.092100 42.078600 0 CFG=2
M  V30 2 O 75.272200 55.647000 43.324700 0
M  V30 3 C 74.323200 56.113000 41.237100 0
M  V30 4 N 73.672200 57.186200 41.664600 0
M  V30 5 C 73.057800 57.658000 40.524700 0
M  V30 6 C 73.408300 56.858000 39.475900 0
M  V30 7 O 74.251200 55.897000 39.903900 0
M  V30 8 H 75.905500 54.858000 41.599300 0
M  V30 9 H 72.429100 58.535800 40.545700 0
M  V30 10 H 73.190400 56.858000 38.421900 0
M  V30 11 H 74.504600 56.121000 43.614000 0
M  V30 12 R 74.109400 53.796200 42.243500 0
M  V30 END ATOM
M  V30 BEGIN BOND
M  V30 1 1 2 1
M  V30 2 1 3 1
M  V30 3 2 4 3
M  V30 4 1 5 4
M  V30 5 2 6 5
M  V30 6 1 7 3
M  V30 7 1 7 6
M  V30 8 1 1 8 CFG=3
M  V30 9 1 9 5
M  V30 10 1 10 6
M  V30 11 1 11 2
M  V30 12 1 12 1
M  V30 END BOND
M  V30 END CTAB
M  END
$$$$
R-group 187 (37891-3)
     RDKit          3D

  0  0  0  0  0  0  0  0  0  0999 V3000
M  V30 BEGIN CTAB
M  V30 COUNTS 22 22 0 0 1
M  V30 BEGIN ATOM
M  V30 1 C 73.841300 54.709200 42.612300 0
M  V30 2 C 75.024400 55.284400 41.825500 0
M  V30 3 C 74.559600 56.169300 40.682000 0 CFG=2
M  V30 4 C 74.038800 57.464500 41.233900 0
M  V30 5 C 72.979700 57.903800 40.238900 0
M  V30 6 C 72.778900 56.688300 39.326100 0 CFG=2
M  V30 7 C 71.320900 56.258600 39.110200 0
M  V30 8 O 73.466800 55.633700 39.963200 0
M  V30 9 H 72.916500 55.258300 42.444100 0
M  V30 10 H 74.072700 54.865400 43.666200 0
M  V30 11 H 75.658900 55.868300 42.493300 0
M  V30 12 H 75.674100 54.499500 41.457600 0
M  V30 13 H 75.378900 56.364200 39.987200 0
M  V30 14 H 73.597400 57.376700 42.226200 0
M  V30 15 H 74.933600 58.048900 41.327300 0
M  V30 16 H 72.072400 58.170500 40.776800 0
M  V30 17 H 73.272200 58.776600 39.659700 0
M  V30 18 H 73.273700 56.856500 38.373300 0
M  V30 19 H 70.753700 57.022100 38.581000 0
M  V30 20 H 71.272900 55.339700 38.525800 0
M  V30 21 H 70.818100 56.052900 40.051900 0
M  V30 22 R 73.589500 53.219400 42.340500 0
M  V30 END ATOM
M  V30 BEGIN BOND
M  V30 1 1 2 1
M  V30 2 1 3 2
M  V30 3 1 4 3
M  V30 4 1 5 4
M  V30 5 1 6 5
M  V30 6 1 7 6
M  V30 7 1 8 3
M  V30 8 1 8 6
M  V30 9 1 9 1
M  V30 10 1 10 1
M  V30 11 1 11 2
M  V30 12 1 12 2
M  V30 13 1 3 13 CFG=3
M  V30 14 1 14 4
M  V30 15 1 15 4
M  V30 16 1 16 5
M  V30 17 1 17 5
M  V30 18 1 6 18 CFG=3
M  V30 19 1 19 7
M  V30 20 1 20 7
M  V30 21 1 21 7
M  V30 22 1 22 1
M  V30 END BOND
M  V30 END CTAB
M  END
$$$$
R-group 188 (14875-1)
     RDKit          3D

  0  0  0  0  0  0  0  0  0  0999 V3000
M  V30 BEGIN CTAB
M  V30 COUNTS 18 18 0 0 1
M  V30 BEGIN ATOM
M  V30 1 C 76.084400 55.466000 44.203400 0
M  V30 2 O 75.672200 56.512600 43.324700 0
M  V30 3 C 74.594200 56.311000 42.420900 0
M  V30 4 C 74.226200 57.659700 41.898400 0
M  V30 5 C 74.924300 55.242600 41.384900 0
M  V30 6 N 73.601300 54.703400 41.658600 0
M  V30 7 C 73.511400 55.387900 42.924700 0
M  V30 8 H 77.105600 55.637200 44.524800 0
M  V30 9 H 75.463600 55.281000 45.081400 0
M  V30 10 H 76.075300 54.504400 43.716200 0
M  V30 11 H 73.352600 57.632900 41.244900 0
M  V30 12 H 74.045100 58.368000 42.706400 0
M  V30 13 H 75.080400 58.007700 41.326700 0
M  V30 14 H 75.743000 54.585500 41.653500 0
M  V30 15 H 75.030500 55.630900 40.370400 0
M  V30 16 H 72.530300 55.824700 43.126700 0
M  V30 17 H 73.873100 54.776600 43.721800 0
M  V30 18 R 73.473300 53.249500 41.726000 0
M  V30 END ATOM
M  V30 BEGIN BOND
M  V30 1 1 2 1
M  V30 2 1 3 2
M  V30 3 1 4 3
M  V30 4 1 5 3
M  V30 5 1 6 5
M  V30 6 1 7 3
M  V30 7 1 7 6
M  V30 8 1 8 1
M  V30 9 1 9 1
M  V30 10 1 10 1
M  V30 11 1 11 4
M  V30 12 1 12 4
M  V30 13 1 13 4
M  V30 14 1 14 5
M  V30 15 1 15 5
M  V30 16 1 16 7
M  V30 17 1 17 7
M  V30 18 1 18 6
M  V30 END BOND
M  V30 END CTAB
M  END
$$$$
R-group 189 (7334-1)
     RDKit          3D

  0  0  0  0  0  0  0  0  0  0999 V3000
M  V30 BEGIN CTAB
M  V30 COUNTS 13 13 0 0 1
M  V30 BEGIN ATOM
M  V30 1 N 73.419500 54.368100 42.124800 0
M  V30 2 C 74.308900 55.180000 41.566100 0
M  V30 3 O 75.272200 54.825700 40.925000 0
M  V30 4 C 73.892100 56.535900 41.535600 0
M  V30 5 C 73.556400 57.488500 42.526400 0
M  V30 6 C 72.872200 58.454100 41.849300 0
M  V30 7 O 72.872000 58.156700 40.524700 0
M  V30 8 C 73.543300 57.027800 40.324700 0
M  V30 9 H 73.672600 57.420100 43.596800 0
M  V30 10 H 72.341300 59.353900 42.129200 0
M  V30 11 H 73.571600 56.660200 39.307000 0
M  V30 12 H 72.665900 54.787600 42.653400 0
M  V30 13 R 73.389500 52.933400 42.009900 0
M  V30 END ATOM
M  V30 BEGIN BOND
M  V30 1 1 2 1
M  V30 2 2 3 2
M  V30 3 1 4 2
M  V30 4 1 5 4
M  V30 5 2 6 5
M  V30 6 1 7 6
M  V30 7 2 8 4
M  V30 8 1 8 7
M  V30 9 1 9 5
M  V30 10 1 10 6
M  V30 11 1 11 8
M  V30 12 1 12 1
M  V30 13 1 13 1
M  V30 END BOND
M  V30 END CTAB
M  END
$$$$
R-group 190 (22508-1)
     RDKit          3D

  0  0  0  0  0  0  0  0  0  0999 V3000
M  V30 BEGIN CTAB
M  V30 COUNTS 12 12 0 0 1
M  V30 BEGIN ATOM
M  V30 1 C 74.007100 54.670900 41.806800 0
M  V30 2 N 74.872500 55.166900 42.694600 0
M  V30 3 C 75.080200 56.461600 42.531800 0
M  V30 4 N 74.471800 57.258000 41.668600 0
M  V30 5 C 73.672600 56.620400 40.826000 0
M  V30 6 C 72.887600 57.463900 39.863100 0
M  V30 7 N 73.406700 55.326500 40.813200 0
M  V30 8 H 75.769800 56.933200 43.219000 0
M  V30 9 H 72.458500 56.858900 39.063300 0
M  V30 10 H 72.075100 57.943600 40.409700 0
M  V30 11 H 73.517900 58.227400 39.409200 0
M  V30 12 R 73.621200 53.210200 41.949000 0
M  V30 END ATOM
M  V30 BEGIN BOND
M  V30 1 2 2 1
M  V30 2 1 3 2
M  V30 3 2 4 3
M  V30 4 1 5 4
M  V30 5 1 6 5
M  V30 6 1 7 1
M  V30 7 2 7 5
M  V30 8 1 8 3
M  V30 9 1 9 6
M  V30 10 1 10 6
M  V30 11 1 11 6
M  V30 12 1 12 1
M  V30 END BOND
M  V30 END CTAB
M  END
$$$$
R-group 191 (8840-1)
     RDKit          3D

  0  0  0  0  0  0  0  0  0  0999 V3000
M  V30 BEGIN CTAB
M  V30 COUNTS 10 10 0 0 1
M  V30 BEGIN ATOM
M  V30 1 C 73.507000 54.711700 42.787400 0
M  V30 2 C 74.198700 55.682600 41.907400 0
M  V30 3 N 73.671500 56.159700 40.768700 0
M  V30 4 C 74.564200 56.841700 40.093700 0
M  V30 5 S 76.072300 56.860600 40.924800 0
M  V30 6 N 75.440700 56.058500 42.219500 0
M  V30 7 H 72.486000 55.066600 42.924500 0
M  V30 8 H 74.071400 54.797400 43.724700 0
M  V30 9 H 74.394300 57.301900 39.126700 0
M  V30 10 R 73.499500 53.260400 42.255400 0
M  V30 END ATOM
M  V30 BEGIN BOND
M  V30 1 1 2 1
M  V30 2 1 3 2
M  V30 3 2 4 3
M  V30 4 1 5 4
M  V30 5 2 6 2
M  V30 6 1 6 5
M  V30 7 1 7 1
M  V30 8 1 8 1
M  V30 9 1 9 4
M  V30 10 1 10 1
M  V30 END BOND
M  V30 END CTAB
M  END
$$$$
R-group 192 (17907-1)
     RDKit          3D

  0  0  0  0  0  0  0  0  0  0999 V3000
M  V30 BEGIN CTAB
M  V30 COUNTS 18 18 0 0 1
M  V30 BEGIN ATOM
M  V30 1 N 74.018800 55.434800 42.002900 0
M  V30 2 C 73.504000 55.966200 43.263400 0
M  V30 3 C 73.477100 57.493200 43.324700 0
M  V30 4 C 72.909400 58.042100 42.099800 0
M  V30 5 N 72.472300 58.458000 41.124000 0
M  V30 6 C 75.435100 55.734800 41.904100 0
M  V30 7 C 75.945400 56.040400 40.523900 0
M  V30 8 C 75.961000 57.119200 41.548400 0
M  V30 9 H 74.072200 55.563600 44.105000 0
M  V30 10 H 72.461900 55.657700 43.324700 0
M  V30 11 H 74.467400 57.919400 43.474100 0
M  V30 12 H 72.854300 57.827500 44.150700 0
M  V30 13 H 76.072200 55.258200 42.628300 0
M  V30 14 H 76.873300 55.588300 40.220000 0
M  V30 15 H 75.220300 56.176900 39.724100 0
M  V30 16 H 75.290600 57.935000 41.324700 0
M  V30 17 H 76.927600 57.412500 41.949500 0
M  V30 18 R 73.694600 53.991100 41.857500 0
M  V30 END ATOM
M  V30 BEGIN BOND
M  V30 1 1 2 1
M  V30 2 1 3 2
M  V30 3 1 4 3
M  V30 4 3 5 4
M  V30 5 1 6 1
M  V30 6 1 7 6
M  V30 7 1 8 6
M  V30 8 1 8 7
M  V30 9 1 9 2
M  V30 10 1 10 2
M  V30 11 1 11 3
M  V30 12 1 12 3
M  V30 13 1 13 6
M  V30 14 1 14 7
M  V30 15 1 15 7
M  V30 16 1 16 8
M  V30 17 1 17 8
M  V30 18 1 18 1
M  V30 END BOND
M  V30 END CTAB
M  END
$$$$
R-group 193 (5426-1)
     RDKit          3D

  0  0  0  0  0  0  0  0  0  0999 V3000
M  V30 BEGIN CTAB
M  V30 COUNTS 17 16 0 0 1
M  V30 BEGIN ATOM
M  V30 1 C 73.339100 54.751400 41.475600 0
M  V30 2 C 72.607400 55.299400 40.202400 0
M  V30 3 C 71.129700 54.859700 39.984300 0
M  V30 4 C 70.642900 54.951000 38.527300 0 CFG=1
M  V30 5 C 71.200300 53.868000 37.590700 0
M  V30 6 F 69.314300 54.840800 38.520700 0
M  V30 7 H 72.875600 55.152700 42.379200 0
M  V30 8 H 74.351200 55.157900 41.465300 0
M  V30 9 H 72.637500 56.389800 40.228300 0
M  V30 10 H 73.193500 55.053300 39.319800 0
M  V30 11 H 70.914500 53.875600 40.400000 0
M  V30 12 H 70.472700 55.519200 40.524600 0
M  V30 13 H 70.856600 55.946400 38.138800 0
M  V30 14 H 72.285000 53.936600 37.488600 0
M  V30 15 H 70.952900 52.870300 37.952100 0
M  V30 16 H 70.773200 53.958800 36.591000 0
M  V30 17 R 73.440600 53.204300 41.605000 0
M  V30 END ATOM
M  V30 BEGIN BOND
M  V30 1 1 2 1
M  V30 2 1 3 2
M  V30 3 1 4 3
M  V30 4 1 5 4
M  V30 5 1 6 4
M  V30 6 1 7 1
M  V30 7 1 8 1
M  V30 8 1 9 2
M  V30 9 1 10 2
M  V30 10 1 11 3
M  V30 11 1 12 3
M  V30 12 1 4 13 CFG=3
M  V30 13 1 14 5
M  V30 14 1 15 5
M  V30 15 1 16 5
M  V30 16 1 17 1
M  V30 END BOND
M  V30 END CTAB
M  END
$$$$
R-group 194 (17829-1)
     RDKit          3D

  0  0  0  0  0  0  0  0  0  0999 V3000
M  V30 BEGIN CTAB
M  V30 COUNTS 16 15 0 0 1
M  V30 BEGIN ATOM
M  V30 1 N 73.272400 54.675400 42.124300 0
M  V30 2 S 74.225800 56.069200 42.286100 0
M  V30 3 O 73.538500 56.822100 43.324600 0
M  V30 4 O 75.637700 55.712000 42.388800 0
M  V30 5 N 74.007700 56.838500 40.765300 0
M  V30 6 C 72.916600 57.760000 40.463700 0
M  V30 7 C 72.585100 58.679600 41.650600 0
M  V30 8 O 71.672300 59.658100 41.324700 0
M  V30 9 H 73.272700 58.368000 39.632400 0
M  V30 10 H 72.048300 57.199200 40.124800 0
M  V30 11 H 72.072300 58.185200 42.449400 0
M  V30 12 H 73.472100 59.127900 42.086000 0
M  V30 13 H 72.678200 54.557400 42.954000 0
M  V30 14 H 74.313100 56.271300 39.976400 0
M  V30 15 H 70.808200 59.460400 41.685600 0
M  V30 16 R 73.697700 53.438600 41.560700 0
M  V30 END ATOM
M  V30 BEGIN BOND
M  V30 1 1 2 1
M  V30 2 2 3 2
M  V30 3 2 4 2
M  V30 4 1 5 2
M  V30 5 1 6 5
M  V30 6 1 7 6
M  V30 7 1 8 7
M  V30 8 1 9 6
M  V30 9 1 10 6
M  V30 10 1 11 7
M  V30 11 1 12 7
M  V30 12 1 13 1
M  V30 13 1 14 5
M  V30 14 1 15 8
M  V30 15 1 16 1
M  V30 END BOND
M  V30 END CTAB
M  END
$$$$
R-group 195 (23936-3)
     RDKit          3D

  0  0  0  0  0  0  0  0  0  0999 V3000
M  V30 BEGIN CTAB
M  V30 COUNTS 19 19 0 0 1
M  V30 BEGIN ATOM
M  V30 1 O 73.857800 54.661700 42.160600 0
M  V30 2 C 75.224200 55.039500 42.279700 0
M  V30 3 C 75.359400 56.459800 41.798800 0 CFG=1
M  V30 4 C 75.182500 56.672200 40.288300 0
M  V30 5 O 73.825500 56.482600 39.919300 0
M  V30 6 C 73.001400 57.468900 40.517200 0
M  V30 7 C 73.078500 57.422600 42.064800 0
M  V30 8 N 74.438100 57.258000 42.565500 0
M  V30 9 H 75.536800 54.971800 43.325100 0
M  V30 10 H 75.900600 54.415400 41.716900 0
M  V30 11 H 76.378300 56.766800 42.045800 0
M  V30 12 H 75.546100 57.656200 39.990600 0
M  V30 13 H 75.788700 55.964200 39.741500 0
M  V30 14 H 73.272200 58.457100 40.148900 0
M  V30 15 H 71.990600 57.291200 40.150900 0
M  V30 16 H 72.660000 58.349000 42.456000 0
M  V30 17 H 72.473700 56.651400 42.525500 0
M  V30 18 H 74.386800 56.897300 43.511600 0
M  V30 19 R 73.557800 53.291400 42.061600 0
M  V30 END ATOM
M  V30 BEGIN BOND
M  V30 1 1 2 1
M  V30 2 1 3 2
M  V30 3 1 4 3
M  V30 4 1 5 4
M  V30 5 1 6 5
M  V30 6 1 7 6
M  V30 7 1 8 3
M  V30 8 1 8 7
M  V30 9 1 9 2
M  V30 10 1 10 2
M  V30 11 1 3 11 CFG=1
M  V30 12 1 12 4
M  V30 13 1 13 4
M  V30 14 1 14 6
M  V30 15 1 15 6
M  V30 16 1 16 7
M  V30 17 1 17 7
M  V30 18 1 18 8
M  V30 19 1 19 1
M  V30 END BOND
M  V30 END CTAB
M  END
$$$$
R-group 196 (8679-1)
     RDKit          3D

  0  0  0  0  0  0  0  0  0  0999 V3000
M  V30 BEGIN CTAB
M  V30 COUNTS 16 15 0 0 1
M  V30 BEGIN ATOM
M  V30 1 C 72.472100 54.119500 42.486300 0
M  V30 2 C 73.247900 55.369300 42.924300 0
M  V30 3 O 73.725800 56.013700 41.774600 0
M  V30 4 C 74.817700 56.861600 42.018000 0
M  V30 5 C 75.594600 56.869500 40.711500 0
M  V30 6 O 76.722200 57.657900 40.924600 0
M  V30 7 H 71.640800 54.430600 41.855800 0
M  V30 8 H 71.984800 53.631800 43.324600 0
M  V30 9 H 72.610000 56.057300 43.479900 0
M  V30 10 H 74.069700 55.089300 43.584200 0
M  V30 11 H 74.463700 57.850000 42.308200 0
M  V30 12 H 75.468100 56.489800 42.810300 0
M  V30 13 H 75.918700 55.862100 40.447700 0
M  V30 14 H 74.998000 57.257800 39.885500 0
M  V30 15 H 77.296600 57.583500 40.170900 0
M  V30 16 R 73.298600 53.069400 41.723800 0
M  V30 END ATOM
M  V30 BEGIN BOND
M  V30 1 1 2 1
M  V30 2 1 3 2
M  V30 3 1 4 3
M  V30 4 1 5 4
M  V30 5 1 6 5
M  V30 6 1 7 1
M  V30 7 1 8 1
M  V30 8 1 9 2
M  V30 9 1 10 2
M  V30 10 1 11 4
M  V30 11 1 12 4
M  V30 12 1 13 5
M  V30 13 1 14 5
M  V30 14 1 15 6
M  V30 15 1 16 1
M  V30 END BOND
M  V30 END CTAB
M  END
$$$$
R-group 197 (36853-2)
     RDKit          3D

  0  0  0  0  0  0  0  0  0  0999 V3000
M  V30 BEGIN CTAB
M  V30 COUNTS 18 17 0 0 1
M  V30 BEGIN ATOM
M  V30 1 C 73.771500 57.369500 43.272700 0
M  V30 2 C 73.595100 55.836100 43.293900 0
M  V30 3 C 74.125900 55.018100 42.100600 0 CFG=2
M  V30 4 N 73.672400 55.662200 40.897300 0
M  V30 5 C 74.332800 56.621600 40.288500 0
M  V30 6 C 73.450300 57.523500 39.444900 0
M  V30 7 O 75.515400 56.857900 40.524800 0
M  V30 8 H 73.269300 57.823800 44.120100 0
M  V30 9 H 74.822800 57.655800 43.297500 0
M  V30 10 H 73.298900 57.841800 42.414400 0
M  V30 11 H 72.520700 55.660700 43.341000 0
M  V30 12 H 74.079700 55.446600 44.188000 0
M  V30 13 H 75.218000 55.045200 42.130600 0
M  V30 14 H 72.878500 56.942900 38.720200 0
M  V30 15 H 72.776600 58.054900 40.123600 0
M  V30 16 H 74.061100 58.259900 38.926200 0
M  V30 17 H 72.704100 55.524900 40.650600 0
M  V30 18 R 73.676100 53.527900 42.097800 0
M  V30 END ATOM
M  V30 BEGIN BOND
M  V30 1 1 2 1
M  V30 2 1 3 2
M  V30 3 1 4 3
M  V30 4 1 5 4
M  V30 5 1 6 5
M  V30 6 2 7 5
M  V30 7 1 8 1
M  V30 8 1 9 1
M  V30 9 1 10 1
M  V30 10 1 11 2
M  V30 11 1 12 2
M  V30 12 1 3 13 CFG=3
M  V30 13 1 14 6
M  V30 14 1 15 6
M  V30 15 1 16 6
M  V30 16 1 17 4
M  V30 17 1 18 3
M  V30 END BOND
M  V30 END CTAB
M  END
$$$$
R-group 198 (2621-1)
     RDKit          3D

  0  0  0  0  0  0  0  0  0  0999 V3000
M  V30 BEGIN CTAB
M  V30 COUNTS 16 16 0 0 1
M  V30 BEGIN ATOM
M  V30 1 C 74.617900 55.391300 42.447000 0
M  V30 2 N 73.952100 56.549300 41.813100 0
M  V30 3 C 73.265600 57.612400 42.554100 0
M  V30 4 C 72.691800 58.572000 41.455100 0
M  V30 5 C 73.233700 58.025800 40.118300 0
M  V30 6 C 74.109800 56.872400 40.532300 0
M  V30 7 O 74.868300 56.367500 39.733600 0
M  V30 8 H 74.772100 55.617300 43.503500 0
M  V30 9 H 75.628200 55.292900 42.030900 0
M  V30 10 H 72.478100 57.212900 43.198000 0
M  V30 11 H 74.007400 58.114100 43.180500 0
M  V30 12 H 72.479100 59.650700 41.625000 0
M  V30 13 H 71.674200 58.458100 41.346100 0
M  V30 14 H 73.672500 58.734700 39.419300 0
M  V30 15 H 72.472000 57.506200 39.562600 0
M  V30 16 R 73.883600 54.024900 42.277600 0
M  V30 END ATOM
M  V30 BEGIN BOND
M  V30 1 1 2 1
M  V30 2 1 3 2
M  V30 3 1 4 3
M  V30 4 1 5 4
M  V30 5 1 6 2
M  V30 6 1 6 5
M  V30 7 2 7 6
M  V30 8 1 8 1
M  V30 9 1 9 1
M  V30 10 1 10 3
M  V30 11 1 11 3
M  V30 12 1 12 4
M  V30 13 1 13 4
M  V30 14 1 14 5
M  V30 15 1 15 5
M  V30 16 1 16 1
M  V30 END BOND
M  V30 END CTAB
M  END
$$$$
R-group 199 (22478-1)
     RDKit          3D

  0  0  0  0  0  0  0  0  0  0999 V3000
M  V30 BEGIN CTAB
M  V30 COUNTS 21 20 0 0 1
M  V30 BEGIN ATOM
M  V30 1 C 73.926500 55.123100 42.026900 0 CFG=2
M  V30 2 C 73.272600 55.877600 43.211900 0
M  V30 3 O 73.272600 57.281800 43.125400 0
M  V30 4 C 73.572100 55.801400 40.684800 0
M  V30 5 C 74.267000 57.131600 40.411400 0
M  V30 6 C 73.912100 57.459200 38.999100 0
M  V30 7 C 75.800200 57.143100 40.623000 0
M  V30 8 H 75.004200 55.210300 42.149000 0
M  V30 9 H 72.229300 55.580200 43.323400 0
M  V30 10 H 73.816000 55.657100 44.124500 0
M  V30 11 H 72.488500 55.878100 40.524900 0
M  V30 12 H 73.893300 55.204600 39.845800 0
M  V30 13 H 73.821900 57.936700 40.986100 0
M  V30 14 H 74.490700 56.858600 38.288100 0
M  V30 15 H 74.062400 58.534400 38.924700 0
M  V30 16 H 72.861300 57.263100 38.785900 0
M  V30 17 H 76.274000 56.290800 40.133800 0
M  V30 18 H 76.269500 58.049900 40.234700 0
M  V30 19 H 76.056700 57.101500 41.681700 0
M  V30 20 H 72.849900 57.624000 43.895400 0
M  V30 21 R 73.622900 53.579100 42.049900 0
M  V30 END ATOM
M  V30 BEGIN BOND
M  V30 1 1 2 1
M  V30 2 1 3 2
M  V30 3 1 4 1
M  V30 4 1 5 4
M  V30 5 1 6 5
M  V30 6 1 7 5
M  V30 7 1 1 8 CFG=1
M  V30 8 1 9 2
M  V30 9 1 10 2
M  V30 10 1 11 4
M  V30 11 1 12 4
M  V30 12 1 13 5
M  V30 13 1 14 6
M  V30 14 1 15 6
M  V30 15 1 16 6
M  V30 16 1 17 7
M  V30 17 1 18 7
M  V30 18 1 19 7
M  V30 19 1 20 3
M  V30 20 1 21 1
M  V30 END BOND
M  V30 END CTAB
M  END
$$$$
R-group 200 (7564-1)
     RDKit          3D

  0  0  0  0  0  0  0  0  0  0999 V3000
M  V30 BEGIN CTAB
M  V30 COUNTS 16 15 0 0 1
M  V30 BEGIN ATOM
M  V30 1 C 70.190000 56.637700 38.671300 0
M  V30 2 C 71.388200 55.919800 39.291000 0
M  V30 3 C 72.538500 56.842200 39.748900 0
M  V30 4 N 73.721300 56.072600 40.121700 0
M  V30 5 S 74.216100 55.632100 41.723600 0
M  V30 6 O 73.559900 56.514900 42.697000 0
M  V30 7 O 75.672200 55.658000 41.652200 0
M  V30 8 H 69.462400 55.915800 38.300100 0
M  V30 9 H 69.678900 57.258100 39.405300 0
M  V30 10 H 70.494600 57.256700 37.829100 0
M  V30 11 H 71.764600 55.207500 38.557000 0
M  V30 12 H 71.016100 55.330200 40.124400 0
M  V30 13 H 72.244100 57.506700 40.559000 0
M  V30 14 H 72.872200 57.474500 38.926100 0
M  V30 15 H 74.480000 56.084200 39.441800 0
M  V30 16 R 73.651000 53.848200 41.962900 0
M  V30 END ATOM
M  V30 BEGIN BOND
M  V30 1 1 2 1
M  V30 2 1 3 2
M  V30 3 1 4 3
M  V30 4 1 5 4
M  V30 5 2 6 5
M  V30 6 2 7 5
M  V30 7 1 8 1
M  V30 8 1 9 1
M  V30 9 1 10 1
M  V30 10 1 11 2
M  V30 11 1 12 2
M  V30 12 1 13 3
M  V30 13 1 14 3
M  V30 14 1 15 4
M  V30 15 1 16 5
M  V30 END BOND
M  V30 END CTAB
M  END
$$$$
R-group 201 (20621-1)
     RDKit          3D

  0  0  0  0  0  0  0  0  0  0999 V3000
M  V30 BEGIN CTAB
M  V30 COUNTS 16 16 0 0 1
M  V30 BEGIN ATOM
M  V30 1 N 73.144400 54.246900 42.124700 0
M  V30 2 C 74.075700 55.185900 41.985400 0
M  V30 3 O 75.272000 54.980400 41.846900 0
M  V30 4 C 73.538300 56.526300 41.891400 0
M  V30 5 C 73.326600 56.879300 40.429100 0
M  V30 6 F 72.872000 58.101500 40.524700 0
M  V30 7 F 74.475000 56.858200 39.757600 0
M  V30 8 F 72.467100 56.129800 39.725300 0
M  V30 9 C 72.873000 57.173400 43.115400 0
M  V30 10 C 74.279000 57.513700 42.745800 0
M  V30 11 H 72.240600 58.058300 43.030700 0
M  V30 12 H 72.728100 56.572100 44.012000 0
M  V30 13 H 75.112700 57.167100 43.349300 0
M  V30 14 H 74.406500 58.457600 42.254200 0
M  V30 15 H 72.201700 54.549400 42.323600 0
M  V30 16 R 73.314100 52.841500 41.893500 0
M  V30 END ATOM
M  V30 BEGIN BOND
M  V30 1 1 2 1
M  V30 2 2 3 2
M  V30 3 1 4 2
M  V30 4 1 5 4
M  V30 5 1 6 5
M  V30 6 1 7 5
M  V30 7 1 8 5
M  V30 8 1 9 4
M  V30 9 1 10 4
M  V30 10 1 10 9
M  V30 11 1 11 9
M  V30 12 1 12 9
M  V30 13 1 13 10
M  V30 14 1 14 10
M  V30 15 1 15 1
M  V30 16 1 16 1
M  V30 END BOND
M  V30 END CTAB
M  END
$$$$
R-group 202 (2808-1)
     RDKit          3D

  0  0  0  0  0  0  0  0  0  0999 V3000
M  V30 BEGIN CTAB
M  V30 COUNTS 19 20 0 0 1
M  V30 BEGIN ATOM
M  V30 1 C 73.067600 54.636800 42.505400 0
M  V30 2 C 74.105700 55.508000 43.258500 0
M  V30 3 N 74.613900 55.717900 41.924000 0
M  V30 4 C 75.217400 56.970600 41.607600 0
M  V30 5 C 76.670000 57.254600 41.891700 0
M  V30 6 O 76.872200 57.658000 40.524800 0
M  V30 7 C 75.626200 57.059000 40.156500 0
M  V30 8 C 73.275000 55.702200 41.420900 0
M  V30 9 H 72.072500 54.776200 42.924600 0
M  V30 10 H 73.672200 56.403200 43.710500 0
M  V30 11 H 74.813500 55.013400 43.919400 0
M  V30 12 H 74.592200 57.817900 41.891600 0
M  V30 13 H 76.872300 58.047100 42.613800 0
M  V30 14 H 77.208900 56.344600 42.124700 0
M  V30 15 H 75.763900 56.072300 39.724800 0
M  V30 16 H 74.977400 57.657900 39.522200 0
M  V30 17 H 73.206200 55.414800 40.374000 0
M  V30 18 H 72.872200 56.695600 41.589800 0
M  V30 19 R 73.291200 53.144700 42.144000 0
M  V30 END ATOM
M  V30 BEGIN BOND
M  V30 1 1 2 1
M  V30 2 1 3 2
M  V30 3 1 4 3
M  V30 4 1 5 4
M  V30 5 1 6 5
M  V30 6 1 7 4
M  V30 7 1 7 6
M  V30 8 1 8 1
M  V30 9 1 8 3
M  V30 10 1 9 1
M  V30 11 1 10 2
M  V30 12 1 11 2
M  V30 13 1 12 4
M  V30 14 1 13 5
M  V30 15 1 14 5
M  V30 16 1 15 7
M  V30 17 1 16 7
M  V30 18 1 17 8
M  V30 19 1 18 8
M  V30 20 1 19 1
M  V30 END BOND
M  V30 END CTAB
M  END
$$$$
R-group 203 (17922-4)
     RDKit          3D

  0  0  0  0  0  0  0  0  0  0999 V3000
M  V30 BEGIN CTAB
M  V30 COUNTS 18 18 0 0 1
M  V30 BEGIN ATOM
M  V30 1 N 73.332500 54.627400 42.125100 0
M  V30 2 C 74.385100 55.351500 42.827800 0 CFG=1
M  V30 3 C 75.727400 55.227700 42.127300 0
M  V30 4 C 75.840300 55.928300 40.788300 0
M  V30 5 O 75.578200 57.258000 41.083800 0
M  V30 6 C 74.244600 57.492300 41.548200 0
M  V30 7 C 74.077400 56.841400 42.908800 0 CFG=1
M  V30 8 F 72.873300 57.072500 43.417300 0
M  V30 9 H 72.468100 54.897100 42.585900 0
M  V30 10 H 74.470200 54.994500 43.849900 0
M  V30 11 H 76.454700 55.718600 42.771700 0
M  V30 12 H 76.070800 54.214900 42.026600 0
M  V30 13 H 75.127500 55.606500 40.034500 0
M  V30 14 H 76.863600 55.843100 40.400200 0
M  V30 15 H 73.500300 57.148600 40.825700 0
M  V30 16 H 74.070700 58.544500 41.719800 0
M  V30 17 H 74.787300 57.344600 43.566600 0
M  V30 18 R 73.343400 53.166500 42.075400 0
M  V30 END ATOM
M  V30 BEGIN BOND
M  V30 1 1 2 1
M  V30 2 1 3 2
M  V30 3 1 4 3
M  V30 4 1 5 4
M  V30 5 1 6 5
M  V30 6 1 7 2
M  V30 7 1 7 6
M  V30 8 1 8 7
M  V30 9 1 9 1
M  V30 10 1 2 10 CFG=1
M  V30 11 1 11 3
M  V30 12 1 12 3
M  V30 13 1 13 4
M  V30 14 1 14 4
M  V30 15 1 15 6
M  V30 16 1 16 6
M  V30 17 1 7 17 CFG=1
M  V30 18 1 18 1
M  V30 END BOND
M  V30 END CTAB
M  END
$$$$
R-group 204 (20353-1)
     RDKit          3D

  0  0  0  0  0  0  0  0  0  0999 V3000
M  V30 BEGIN CTAB
M  V30 COUNTS 12 12 0 0 1
M  V30 BEGIN ATOM
M  V30 1 C 73.776400 54.915800 42.107400 0 CFG=1
M  V30 2 C 74.759100 55.790900 41.362700 0
M  V30 3 C 73.277100 55.965000 41.139600 0 CFG=1
M  V30 4 C 72.618100 55.647700 39.812300 0
M  V30 5 F 71.557700 54.857900 40.108700 0
M  V30 6 F 72.237800 56.830700 39.326100 0
M  V30 7 F 73.418000 55.071600 38.927600 0
M  V30 8 H 73.674800 55.213000 43.147800 0
M  V30 9 H 75.260000 56.564400 41.945900 0
M  V30 10 H 75.359800 55.395600 40.557200 0
M  V30 11 H 72.876500 56.858300 41.609300 0
M  V30 12 R 73.637600 53.388100 41.981800 0
M  V30 END ATOM
M  V30 BEGIN BOND
M  V30 1 1 2 1
M  V30 2 1 3 1
M  V30 3 1 3 2
M  V30 4 1 4 3
M  V30 5 1 5 4
M  V30 6 1 6 4
M  V30 7 1 7 4
M  V30 8 1 1 8 CFG=1
M  V30 9 1 9 2
M  V30 10 1 10 2
M  V30 11 1 3 11 CFG=1
M  V30 12 1 12 1
M  V30 END BOND
M  V30 END CTAB
M  END
$$$$
R-group 205 (35201-2)
     RDKit          3D

  0  0  0  0  0  0  0  0  0  0999 V3000
M  V30 BEGIN CTAB
M  V30 COUNTS 12 12 0 0 1
M  V30 BEGIN ATOM
M  V30 1 C 73.920400 55.027800 42.196700 0 CFG=1
M  V30 2 C 75.367600 55.520500 42.370800 0
M  V30 3 N 75.524900 56.508100 41.324100 0
M  V30 4 C 74.532600 56.424300 40.446000 0
M  V30 5 O 74.472200 56.882800 39.325000 0
M  V30 6 N 73.585300 55.688900 40.964900 0
M  V30 7 H 73.298100 55.461800 42.980800 0
M  V30 8 H 75.576100 55.918900 43.363700 0
M  V30 9 H 76.072100 54.739400 42.124600 0
M  V30 10 H 76.392100 56.990400 41.139900 0
M  V30 11 H 72.741000 55.474700 40.457800 0
M  V30 12 R 73.653200 53.490200 42.099000 0
M  V30 END ATOM
M  V30 BEGIN BOND
M  V30 1 1 2 1
M  V30 2 1 3 2
M  V30 3 1 4 3
M  V30 4 2 5 4
M  V30 5 1 6 1
M  V30 6 1 6 4
M  V30 7 1 1 7 CFG=1
M  V30 8 1 8 2
M  V30 9 1 9 2
M  V30 10 1 10 3
M  V30 11 1 11 6
M  V30 12 1 12 1
M  V30 END BOND
M  V30 END CTAB
M  END
$$$$
R-group 206 (20851-1)
     RDKit          3D

  0  0  0  0  0  0  0  0  0  0999 V3000
M  V30 BEGIN CTAB
M  V30 COUNTS 14 14 0 0 1
M  V30 BEGIN ATOM
M  V30 1 S 74.285700 55.253000 41.712400 0
M  V30 2 O 74.070900 56.056200 42.924500 0
M  V30 3 O 75.617200 55.260700 41.104500 0
M  V30 4 N 73.272700 55.821300 40.548200 0
M  V30 5 C 73.479200 55.568700 39.137700 0
M  V30 6 C 73.303400 57.040100 38.963000 0
M  V30 7 C 73.277600 57.256400 40.444500 0
M  V30 8 H 74.472100 55.287900 38.820600 0
M  V30 9 H 72.698400 54.971200 38.666000 0
M  V30 10 H 72.336700 57.216400 38.524900 0
M  V30 11 H 74.208000 57.471000 38.542600 0
M  V30 12 H 72.392400 57.752600 40.835700 0
M  V30 13 H 74.208100 57.658400 40.838300 0
M  V30 14 R 73.674500 53.523800 42.029000 0
M  V30 END ATOM
M  V30 BEGIN BOND
M  V30 1 2 2 1
M  V30 2 2 3 1
M  V30 3 1 4 1
M  V30 4 1 5 4
M  V30 5 1 6 5
M  V30 6 1 7 4
M  V30 7 1 7 6
M  V30 8 1 8 5
M  V30 9 1 9 5
M  V30 10 1 10 6
M  V30 11 1 11 6
M  V30 12 1 12 7
M  V30 13 1 13 7
M  V30 14 1 14 1
M  V30 END BOND
M  V30 END CTAB
M  END
$$$$
R-group 207 (13555-1)
     RDKit          3D

  0  0  0  0  0  0  0  0  0  0999 V3000
M  V30 BEGIN CTAB
M  V30 COUNTS 20 19 0 0 1
M  V30 BEGIN ATOM
M  V30 1 C 72.488700 58.054500 41.582400 0
M  V30 2 C 73.237400 57.100800 42.522600 0
M  V30 3 N 74.286100 56.352700 41.810000 0
M  V30 4 C 75.464500 57.091600 41.446100 0
M  V30 5 C 76.472200 57.058200 42.561400 0
M  V30 6 C 74.338000 55.052500 41.534200 0
M  V30 7 O 75.265800 54.571100 40.886100 0
M  V30 8 N 73.385600 54.331200 42.112600 0
M  V30 9 H 71.671400 58.475500 42.141900 0
M  V30 10 H 73.130400 58.857100 41.255800 0
M  V30 11 H 72.075100 57.566500 40.696400 0
M  V30 12 H 72.502400 56.473800 43.030200 0
M  V30 13 H 73.705100 57.685600 43.311300 0
M  V30 14 H 75.912200 56.827700 40.485300 0
M  V30 15 H 75.110600 58.053700 41.321900 0
M  V30 16 H 77.306900 57.668300 42.255000 0
M  V30 17 H 76.090800 57.425900 43.513400 0
M  V30 18 H 76.861700 56.058500 42.695300 0
M  V30 19 H 72.708800 54.810100 42.696100 0
M  V30 20 R 73.343800 52.891900 42.088500 0
M  V30 END ATOM
M  V30 BEGIN BOND
M  V30 1 1 2 1
M  V30 2 1 3 2
M  V30 3 1 4 3
M  V30 4 1 5 4
M  V30 5 1 6 3
M  V30 6 2 7 6
M  V30 7 1 8 6
M  V30 8 1 9 1
M  V30 9 1 10 1
M  V30 10 1 11 1
M  V30 11 1 12 2
M  V30 12 1 13 2
M  V30 13 1 14 4
M  V30 14 1 15 4
M  V30 15 1 16 5
M  V30 16 1 17 5
M  V30 17 1 18 5
M  V30 18 1 19 8
M  V30 19 1 20 8
M  V30 END BOND
M  V30 END CTAB
M  END
$$$$
R-group 208 (477-1)
     RDKit          3D

  0  0  0  0  0  0  0  0  0  0999 V3000
M  V30 BEGIN CTAB
M  V30 COUNTS 16 15 0 0 1
M  V30 BEGIN ATOM
M  V30 1 O 73.741200 54.861400 42.503500 0
M  V30 2 C 75.067300 55.339800 42.693200 0
M  V30 3 C 75.067200 56.858600 42.514300 0
M  V30 4 O 74.369300 57.199000 41.336900 0
M  V30 5 C 75.065400 56.902600 40.142400 0
M  V30 6 C 74.016900 56.863100 39.044600 0
M  V30 7 F 73.071000 55.974600 39.324800 0
M  V30 8 H 75.429600 55.096000 43.691500 0
M  V30 9 H 75.739700 54.871800 41.982500 0
M  V30 10 H 74.528500 57.337200 43.326900 0
M  V30 11 H 76.081900 57.258500 42.512700 0
M  V30 12 H 75.821100 57.657900 39.949400 0
M  V30 13 H 75.605800 55.963600 40.165800 0
M  V30 14 H 73.533700 57.831200 38.924800 0
M  V30 15 H 74.473000 56.561700 38.114000 0
M  V30 16 R 73.539300 53.463900 42.268100 0
M  V30 END ATOM
M  V30 BEGIN BOND
M  V30 1 1 2 1
M  V30 2 1 3 2
M  V30 3 1 4 3
M  V30 4 1 5 4
M  V30 5 1 6 5
M  V30 6 1 7 6
M  V30 7 1 8 2
M  V30 8 1 9 2
M  V30 9 1 10 3
M  V30 10 1 11 3
M  V30 11 1 12 5
M  V30 12 1 13 5
M  V30 13 1 14 6
M  V30 14 1 15 6
M  V30 15 1 16 1
M  V30 END BOND
M  V30 END CTAB
M  END
$$$$
R-group 209 (14361-1)
     RDKit          3D

  0  0  0  0  0  0  0  0  0  0999 V3000
M  V30 BEGIN CTAB
M  V30 COUNTS 13 13 0 0 1
M  V30 BEGIN ATOM
M  V30 1 C 76.925900 57.686300 40.349100 0
M  V30 2 O 76.472900 57.574900 41.646400 0
M  V30 3 C 75.371100 56.854500 41.813100 0
M  V30 4 C 74.304700 57.081600 42.610500 0
M  V30 5 C 73.554400 55.913900 42.763300 0
M  V30 6 C 73.952200 54.874600 41.973500 0
M  V30 7 S 75.262800 55.349700 40.980200 0
M  V30 8 H 77.689400 58.456100 40.181400 0
M  V30 9 H 77.272200 56.698700 40.124900 0
M  V30 10 H 76.080900 57.914700 39.724600 0
M  V30 11 H 74.127100 57.974400 43.191300 0
M  V30 12 H 72.728400 55.870600 43.454000 0
M  V30 13 R 73.502600 53.461300 41.972400 0
M  V30 END ATOM
M  V30 BEGIN BOND
M  V30 1 1 2 1
M  V30 2 1 3 2
M  V30 3 2 4 3
M  V30 4 1 5 4
M  V30 5 2 6 5
M  V30 6 1 7 3
M  V30 7 1 7 6
M  V30 8 1 8 1
M  V30 9 1 9 1
M  V30 10 1 10 1
M  V30 11 1 11 4
M  V30 12 1 12 5
M  V30 13 1 13 6
M  V30 END BOND
M  V30 END CTAB
M  END
$$$$
R-group 210 (16390-1)
     RDKit          3D

  0  0  0  0  0  0  0  0  0  0999 V3000
M  V30 BEGIN CTAB
M  V30 COUNTS 19 18 0 0 1
M  V30 BEGIN ATOM
M  V30 1 C 76.315600 56.604700 40.623500 0
M  V30 2 O 75.565100 56.536200 41.822400 0
M  V30 3 C 74.342300 57.254600 41.784800 0 CFG=2
M  V30 4 C 73.885800 57.536600 43.205600 0
M  V30 5 C 73.275600 56.574500 40.939600 0
M  V30 6 C 72.873100 55.225100 41.508000 0
M  V30 7 O 73.971900 54.396400 41.597800 0
M  V30 8 H 76.871000 55.676300 40.524900 0
M  V30 9 H 75.702500 56.698100 39.730100 0
M  V30 10 H 77.009800 57.444100 40.649600 0
M  V30 11 H 74.490100 58.201500 41.325800 0
M  V30 12 H 72.983300 58.147100 43.232600 0
M  V30 13 H 73.674000 56.606300 43.724100 0
M  V30 14 H 74.684500 58.059200 43.724500 0
M  V30 15 H 73.599500 56.438800 39.909500 0
M  V30 16 H 72.429600 57.255100 40.874500 0
M  V30 17 H 72.088700 54.817800 40.870700 0
M  V30 18 H 72.476100 55.258200 42.524600 0
M  V30 19 R 73.566200 53.083500 41.824500 0
M  V30 END ATOM
M  V30 BEGIN BOND
M  V30 1 1 2 1
M  V30 2 1 3 2
M  V30 3 1 4 3
M  V30 4 1 5 3
M  V30 5 1 6 5
M  V30 6 1 7 6
M  V30 7 1 8 1
M  V30 8 1 9 1
M  V30 9 1 10 1
M  V30 10 1 3 11 CFG=3
M  V30 11 1 12 4
M  V30 12 1 13 4
M  V30 13 1 14 4
M  V30 14 1 15 5
M  V30 15 1 16 5
M  V30 16 1 17 6
M  V30 17 1 18 6
M  V30 18 1 19 7
M  V30 END BOND
M  V30 END CTAB
M  END
$$$$
R-group 211 (1667-1)
     RDKit          3D

  0  0  0  0  0  0  0  0  0  0999 V3000
M  V30 BEGIN CTAB
M  V30 COUNTS 15 14 0 0 1
M  V30 BEGIN ATOM
M  V30 1 C 76.813300 57.820100 40.534500 0
M  V30 2 C 76.472200 56.513400 41.211600 0
M  V30 3 C 75.028600 56.419600 41.632900 0
M  V30 4 O 74.180800 57.257300 41.325800 0
M  V30 5 N 74.757700 55.307000 42.298600 0
M  V30 6 C 73.415400 54.806800 42.398100 0
M  V30 7 H 77.816900 57.794400 40.122400 0
M  V30 8 H 76.091000 58.058200 39.741100 0
M  V30 9 H 76.793000 58.565400 41.321100 0
M  V30 10 H 77.061800 56.408800 42.120500 0
M  V30 11 H 76.698900 55.676300 40.546300 0
M  V30 12 H 72.871600 55.265600 41.587700 0
M  V30 13 H 72.997500 55.196500 43.323500 0
M  V30 14 H 75.511200 54.678100 42.531300 0
M  V30 15 R 73.356300 53.282800 42.183900 0
M  V30 END ATOM
M  V30 BEGIN BOND
M  V30 1 1 2 1
M  V30 2 1 3 2
M  V30 3 2 4 3
M  V30 4 1 5 3
M  V30 5 1 6 5
M  V30 6 1 7 1
M  V30 7 1 8 1
M  V30 8 1 9 1
M  V30 9 1 10 2
M  V30 10 1 11 2
M  V30 11 1 12 6
M  V30 12 1 13 6
M  V30 13 1 14 5
M  V30 14 1 15 6
M  V30 END BOND
M  V30 END CTAB
M  END
$$$$
R-group 212 (37347-1)
     RDKit          3D

  0  0  0  0  0  0  0  0  0  0999 V3000
M  V30 BEGIN CTAB
M  V30 COUNTS 22 22 0 0 1
M  V30 BEGIN ATOM
M  V30 1 C 73.771300 54.849800 41.588400 0
M  V30 2 C 72.809400 55.326700 40.450300 0
M  V30 3 C 73.319600 55.235700 39.015900 0
M  V30 4 F 73.773800 56.445900 38.738700 0
M  V30 5 C 73.332400 55.532800 42.909900 0
M  V30 6 C 73.542800 57.048600 42.931200 0
M  V30 7 O 74.929700 57.247600 42.761000 0
M  V30 8 C 75.406100 56.837700 41.487700 0
M  V30 9 C 75.238500 55.319100 41.362200 0
M  V30 10 H 71.854300 54.805900 40.525100 0
M  V30 11 H 72.512600 56.371000 40.536500 0
M  V30 12 H 74.172500 54.615300 38.845300 0
M  V30 13 H 72.558500 54.859800 38.325300 0
M  V30 14 H 72.299800 55.286800 43.154300 0
M  V30 15 H 73.966000 55.185800 43.724100 0
M  V30 16 H 72.966700 57.591200 42.186900 0
M  V30 17 H 73.239300 57.452800 43.895500 0
M  V30 18 H 74.879000 57.363000 40.698300 0
M  V30 19 H 76.460700 57.106100 41.402800 0
M  V30 20 H 75.875900 54.887000 42.124900 0
M  V30 21 H 75.653400 54.986200 40.414100 0
M  V30 22 R 73.641400 53.281700 41.766000 0
M  V30 END ATOM
M  V30 BEGIN BOND
M  V30 1 1 2 1
M  V30 2 1 3 2
M  V30 3 1 4 3
M  V30 4 1 5 1
M  V30 5 1 6 5
M  V30 6 1 7 6
M  V30 7 1 8 7
M  V30 8 1 9 1
M  V30 9 1 9 8
M  V30 10 1 10 2
M  V30 11 1 11 2
M  V30 12 1 12 3
M  V30 13 1 13 3
M  V30 14 1 14 5
M  V30 15 1 15 5
M  V30 16 1 16 6
M  V30 17 1 17 6
M  V30 18 1 18 8
M  V30 19 1 19 8
M  V30 20 1 20 9
M  V30 21 1 21 9
M  V30 22 1 22 1
M  V30 END BOND
M  V30 END CTAB
M  END
$$$$
R-group 213 (39720-1)
     RDKit          3D

  0  0  0  0  0  0  0  0  0  0999 V3000
M  V30 BEGIN CTAB
M  V30 COUNTS 17 17 0 0 1
M  V30 BEGIN ATOM
M  V30 1 C 76.209000 56.760100 42.565100 0
M  V30 2 O 75.654400 55.653900 41.870000 0
M  V30 3 C 74.245400 55.463800 41.978100 0 CFG=1
M  V30 4 C 73.727700 56.537200 40.979200 0
M  V30 5 C 74.410600 56.603900 39.622600 0
M  V30 6 O 73.196700 56.511200 38.924600 0
M  V30 7 C 72.467100 56.524800 40.124800 0
M  V30 8 H 77.178800 56.999800 42.124400 0
M  V30 9 H 75.606600 57.655900 42.505600 0
M  V30 10 H 76.345700 56.517100 43.617200 0
M  V30 11 H 73.945700 55.741000 42.990600 0
M  V30 12 H 73.765400 57.529600 41.428000 0
M  V30 13 H 74.960400 57.515200 39.395500 0
M  V30 14 H 74.899500 55.706900 39.337600 0
M  V30 15 H 71.789800 55.672800 40.124500 0
M  V30 16 H 71.898700 57.452300 40.144500 0
M  V30 17 R 73.866300 53.931800 41.809600 0
M  V30 END ATOM
M  V30 BEGIN BOND
M  V30 1 1 2 1
M  V30 2 1 3 2
M  V30 3 1 4 3
M  V30 4 1 5 4
M  V30 5 1 6 5
M  V30 6 1 7 4
M  V30 7 1 7 6
M  V30 8 1 8 1
M  V30 9 1 9 1
M  V30 10 1 10 1
M  V30 11 1 3 11 CFG=1
M  V30 12 1 12 4
M  V30 13 1 13 5
M  V30 14 1 14 5
M  V30 15 1 15 7
M  V30 16 1 16 7
M  V30 17 1 17 3
M  V30 END BOND
M  V30 END CTAB
M  END
$$$$
R-group 214 (2337-1)
     RDKit          3D

  0  0  0  0  0  0  0  0  0  0999 V3000
M  V30 BEGIN CTAB
M  V30 COUNTS 17 17 0 0 1
M  V30 BEGIN ATOM
M  V30 1 C 72.808000 54.287700 42.311800 0
M  V30 2 C 73.673200 55.564000 42.161600 0 CFG=2
M  V30 3 C 75.129100 55.448600 42.595200 0
M  V30 4 C 75.592000 56.879500 42.534400 0 CFG=1
M  V30 5 O 76.072200 57.105600 41.227400 0
M  V30 6 C 74.296400 57.657500 42.796100 0
M  V30 7 O 73.272800 56.682600 42.926000 0
M  V30 8 H 71.820900 54.457400 41.885800 0
M  V30 9 H 72.604700 53.983300 43.324300 0
M  V30 10 H 73.624400 55.887900 41.119800 0
M  V30 11 H 75.196800 55.092500 43.623700 0
M  V30 12 H 75.702800 54.788300 41.953300 0
M  V30 13 H 76.372300 57.095300 43.267500 0
M  V30 14 H 74.362800 58.238800 43.709300 0
M  V30 15 H 74.054300 58.337100 41.979000 0
M  V30 16 H 76.423600 57.984000 41.178500 0
M  V30 17 R 73.392500 53.054000 41.634700 0
M  V30 END ATOM
M  V30 BEGIN BOND
M  V30 1 1 2 1
M  V30 2 1 3 2
M  V30 3 1 4 3
M  V30 4 1 5 4
M  V30 5 1 6 4
M  V30 6 1 7 2
M  V30 7 1 7 6
M  V30 8 1 8 1
M  V30 9 1 9 1
M  V30 10 1 2 10 CFG=3
M  V30 11 1 11 3
M  V30 12 1 12 3
M  V30 13 1 4 13 CFG=1
M  V30 14 1 14 6
M  V30 15 1 15 6
M  V30 16 1 16 5
M  V30 17 1 17 1
M  V30 END BOND
M  V30 END CTAB
M  END
$$$$
R-group 215 (8043-1)
     RDKit          3D

  0  0  0  0  0  0  0  0  0  0999 V3000
M  V30 BEGIN CTAB
M  V30 COUNTS 18 18 0 0 1
M  V30 BEGIN ATOM
M  V30 1 C 71.782400 56.445300 39.332600 0
M  V30 2 C 73.311400 56.541800 39.451600 0
M  V30 3 N 73.661700 56.613600 40.886100 0
M  V30 4 C 73.278600 57.653300 41.698900 0
M  V30 5 O 72.510000 58.583300 41.456400 0
M  V30 6 N 73.736700 57.394000 42.904500 0
M  V30 7 C 74.535000 56.195500 42.997300 0
M  V30 8 C 74.457100 55.563300 41.603500 0 CFG=1
M  V30 9 H 71.345700 56.912700 38.475400 0
M  V30 10 H 71.390000 55.440900 39.375300 0
M  V30 11 H 71.342300 57.022200 40.119400 0
M  V30 12 H 73.634400 57.473600 38.987300 0
M  V30 13 H 73.829200 55.760100 38.876000 0
M  V30 14 H 74.095700 55.594200 43.793200 0
M  V30 15 H 75.525200 56.534700 43.271200 0
M  V30 16 H 75.433300 55.592800 41.138600 0
M  V30 17 H 73.481300 58.024000 43.657800 0
M  V30 18 R 73.889500 54.061100 41.710400 0
M  V30 END ATOM
M  V30 BEGIN BOND
M  V30 1 1 2 1
M  V30 2 1 3 2
M  V30 3 1 4 3
M  V30 4 2 5 4
M  V30 5 1 6 4
M  V30 6 1 7 6
M  V30 7 1 8 3
M  V30 8 1 8 7
M  V30 9 1 9 1
M  V30 10 1 10 1
M  V30 11 1 11 1
M  V30 12 1 12 2
M  V30 13 1 13 2
M  V30 14 1 14 7
M  V30 15 1 15 7
M  V30 16 1 8 16 CFG=3
M  V30 17 1 17 6
M  V30 18 1 18 8
M  V30 END BOND
M  V30 END CTAB
M  END
$$$$
R-group 216 (40496-2)
     RDKit          3D

  0  0  0  0  0  0  0  0  0  0999 V3000
M  V30 BEGIN CTAB
M  V30 COUNTS 15 14 0 0 1
M  V30 BEGIN ATOM
M  V30 1 C 73.650000 55.133800 41.764300 0 CFG=1
M  V30 2 C 73.243200 55.898000 43.030300 0
M  V30 3 C 74.982300 55.555700 41.105300 0
M  V30 4 C 75.798100 56.669700 41.747100 0
M  V30 5 N 76.472100 57.429300 40.923400 0
M  V30 6 O 75.935800 56.837400 42.951500 0
M  V30 7 H 72.882700 55.451500 41.057100 0
M  V30 8 H 73.898400 55.657700 43.859500 0
M  V30 9 H 73.269500 56.980100 42.883400 0
M  V30 10 H 72.222300 55.660100 43.325800 0
M  V30 11 H 75.665800 54.718700 41.027700 0
M  V30 12 H 74.775500 55.846300 40.075200 0
M  V30 13 H 76.453900 57.242700 39.930700 0
M  V30 14 H 77.052700 58.165100 41.300600 0
M  V30 15 R 73.495800 53.589500 41.886100 0
M  V30 END ATOM
M  V30 BEGIN BOND
M  V30 1 1 2 1
M  V30 2 1 3 1
M  V30 3 1 4 3
M  V30 4 1 5 4
M  V30 5 2 6 4
M  V30 6 1 1 7 CFG=3
M  V30 7 1 8 2
M  V30 8 1 9 2
M  V30 9 1 10 2
M  V30 10 1 11 3
M  V30 11 1 12 3
M  V30 12 1 13 5
M  V30 13 1 14 5
M  V30 14 1 15 1
M  V30 END BOND
M  V30 END CTAB
M  END
$$$$
R-group 217 (5370-1)
     RDKit          3D

  0  0  0  0  0  0  0  0  0  0999 V3000
M  V30 BEGIN CTAB
M  V30 COUNTS 10 10 0 0 1
M  V30 BEGIN ATOM
M  V30 1 C 74.273400 54.993100 41.750200 0
M  V30 2 N 75.271300 55.600600 41.029300 0
M  V30 3 N 75.243300 56.854400 41.371900 0
M  V30 4 N 74.263900 56.922000 42.289800 0
M  V30 5 C 73.794600 58.105600 42.906600 0
M  V30 6 N 73.672400 55.788900 42.576900 0
M  V30 7 H 72.822700 57.940300 43.375600 0
M  V30 8 H 74.494300 58.424200 43.682100 0
M  V30 9 H 73.672000 58.856900 42.124900 0
M  V30 10 R 73.819200 53.576200 41.736300 0
M  V30 END ATOM
M  V30 BEGIN BOND
M  V30 1 1 2 1
M  V30 2 2 3 2
M  V30 3 1 4 3
M  V30 4 1 5 4
M  V30 5 2 6 1
M  V30 6 1 6 4
M  V30 7 1 7 5
M  V30 8 1 8 5
M  V30 9 1 9 5
M  V30 10 1 10 1
M  V30 END BOND
M  V30 END CTAB
M  END
$$$$
R-group 218 (39331-1)
     RDKit          3D

  0  0  0  0  0  0  0  0  0  0999 V3000
M  V30 BEGIN CTAB
M  V30 COUNTS 15 14 0 0 1
M  V30 BEGIN ATOM
M  V30 1 C 74.009600 56.455900 38.770500 0
M  V30 2 O 74.390100 56.609900 40.119300 0
M  V30 3 C 73.240300 56.784100 40.920600 0
M  V30 4 C 73.509400 56.415400 42.378200 0 CFG=2
M  V30 5 F 74.068600 57.485200 42.924600 0
M  V30 6 C 74.437100 55.212900 42.592000 0
M  V30 7 H 74.872100 56.557400 38.124600 0
M  V30 8 H 73.574100 55.472900 38.588000 0
M  V30 9 H 73.263500 57.210500 38.524700 0
M  V30 10 H 72.449900 56.161000 40.524300 0
M  V30 11 H 72.878600 57.810800 40.841200 0
M  V30 12 H 72.584000 56.275100 42.934900 0
M  V30 13 H 74.747200 55.286300 43.634800 0
M  V30 14 H 75.360800 55.340700 42.027500 0
M  V30 15 R 73.850900 53.791900 42.357000 0
M  V30 END ATOM
M  V30 BEGIN BOND
M  V30 1 1 2 1
M  V30 2 1 3 2
M  V30 3 1 4 3
M  V30 4 1 5 4
M  V30 5 1 6 4
M  V30 6 1 7 1
M  V30 7 1 8 1
M  V30 8 1 9 1
M  V30 9 1 10 3
M  V30 10 1 11 3
M  V30 11 1 4 12 CFG=1
M  V30 12 1 13 6
M  V30 13 1 14 6
M  V30 14 1 15 6
M  V30 END BOND
M  V30 END CTAB
M  END
$$$$
R-group 219 (16628-1)
     RDKit          3D

  0  0  0  0  0  0  0  0  0  0999 V3000
M  V30 BEGIN CTAB
M  V30 COUNTS 13 13 0 0 1
M  V30 BEGIN ATOM
M  V30 1 C 74.079400 54.686100 41.750700 0
M  V30 2 C 73.672300 55.693400 42.528000 0
M  V30 3 C 74.219200 56.858200 42.012500 0
M  V30 4 C 73.834700 58.189800 42.495400 0
M  V30 5 O 72.474900 58.457900 42.513500 0
M  V30 6 C 75.098700 56.458700 41.042800 0
M  V30 7 O 75.022500 55.117100 40.871300 0
M  V30 8 H 72.943600 55.623100 43.321900 0
M  V30 9 H 74.356100 58.456300 43.413600 0
M  V30 10 H 74.071900 58.842000 41.713100 0
M  V30 11 H 75.773600 56.975900 40.377800 0
M  V30 12 H 72.137700 58.372700 41.632700 0
M  V30 13 R 73.685300 53.274500 41.780500 0
M  V30 END ATOM
M  V30 BEGIN BOND
M  V30 1 2 2 1
M  V30 2 1 3 2
M  V30 3 1 4 3
M  V30 4 1 5 4
M  V30 5 2 6 3
M  V30 6 1 7 1
M  V30 7 1 7 6
M  V30 8 1 8 2
M  V30 9 1 9 4
M  V30 10 1 10 4
M  V30 11 1 11 6
M  V30 12 1 12 5
M  V30 13 1 13 1
M  V30 END BOND
M  V30 END CTAB
M  END
$$$$
R-group 220 (42198-1)
     RDKit          3D

  0  0  0  0  0  0  0  0  0  0999 V3000
M  V30 BEGIN CTAB
M  V30 COUNTS 15 15 0 0 1
M  V30 BEGIN ATOM
M  V30 1 C 72.775100 54.163500 42.074300 0
M  V30 2 C 73.920100 55.177500 42.126000 0
M  V30 3 C 74.710600 55.265900 43.276700 0
M  V30 4 C 75.767100 56.153600 43.279600 0
M  V30 5 C 76.072000 56.858000 42.115600 0
M  V30 6 N 75.302000 56.857500 41.024700 0
M  V30 7 C 74.227100 56.061300 41.065900 0
M  V30 8 C 73.236900 56.288400 40.072400 0
M  V30 9 N 72.391000 56.446000 39.324700 0
M  V30 10 H 71.960000 54.457400 41.416100 0
M  V30 11 H 72.276300 54.070300 43.026600 0
M  V30 12 H 74.491100 54.730200 44.180000 0
M  V30 13 H 76.412600 56.255000 44.132000 0
M  V30 14 H 76.934400 57.504400 42.079600 0
M  V30 15 R 73.268300 52.788800 41.621900 0
M  V30 END ATOM
M  V30 BEGIN BOND
M  V30 1 1 2 1
M  V30 2 2 3 2
M  V30 3 1 4 3
M  V30 4 2 5 4
M  V30 5 1 6 5
M  V30 6 1 7 2
M  V30 7 2 7 6
M  V30 8 1 8 7
M  V30 9 3 9 8
M  V30 10 1 10 1
M  V30 11 1 11 1
M  V30 12 1 12 3
M  V30 13 1 13 4
M  V30 14 1 14 5
M  V30 15 1 15 1
M  V30 END BOND
M  V30 END CTAB
M  END
$$$$
R-group 221 (10511-1)
     RDKit          3D

  0  0  0  0  0  0  0  0  0  0999 V3000
M  V30 BEGIN CTAB
M  V30 COUNTS 18 17 0 0 1
M  V30 BEGIN ATOM
M  V30 1 C 76.485700 57.010500 40.964300 0
M  V30 2 C 75.139500 56.400800 40.645500 0
M  V30 3 O 74.474100 56.858200 39.723800 0
M  V30 4 N 74.765400 55.360900 41.401600 0
M  V30 5 C 73.408200 54.861000 41.618400 0
M  V30 6 C 72.969800 55.612800 42.903400 0
M  V30 7 C 72.453800 55.204200 40.422500 0
M  V30 8 H 76.879700 56.564300 41.873700 0
M  V30 9 H 77.177800 56.865700 40.130700 0
M  V30 10 H 76.392300 58.079500 41.132000 0
M  V30 11 H 72.022400 55.259700 43.315900 0
M  V30 12 H 73.727800 55.535900 43.679400 0
M  V30 13 H 72.872000 56.682800 42.712400 0
M  V30 14 H 71.466800 54.750100 40.530500 0
M  V30 15 H 72.265500 56.270000 40.260200 0
M  V30 16 H 72.849700 54.862000 39.468100 0
M  V30 17 H 75.454000 55.015200 42.056000 0
M  V30 18 R 73.431000 53.298100 41.834700 0
M  V30 END ATOM
M  V30 BEGIN BOND
M  V30 1 1 2 1
M  V30 2 2 3 2
M  V30 3 1 4 2
M  V30 4 1 5 4
M  V30 5 1 6 5
M  V30 6 1 7 5
M  V30 7 1 8 1
M  V30 8 1 9 1
M  V30 9 1 10 1
M  V30 10 1 11 6
M  V30 11 1 12 6
M  V30 12 1 13 6
M  V30 13 1 14 7
M  V30 14 1 15 7
M  V30 15 1 16 7
M  V30 16 1 17 4
M  V30 17 1 18 5
M  V30 END BOND
M  V30 END CTAB
M  END
$$$$
R-group 222 (2680-1)
     RDKit          3D

  0  0  0  0  0  0  0  0  0  0999 V3000
M  V30 BEGIN CTAB
M  V30 COUNTS 12 12 0 0 1
M  V30 BEGIN ATOM
M  V30 1 C 73.231500 54.546400 42.253100 0
M  V30 2 C 74.240300 55.555000 41.916700 0
M  V30 3 N 75.227200 55.940700 42.711900 0
M  V30 4 C 75.979300 56.803400 41.919100 0
M  V30 5 C 75.430900 56.856500 40.661100 0
M  V30 6 N 74.274200 56.140200 40.724400 0
M  V30 7 H 72.253200 54.847400 41.916700 0
M  V30 8 H 73.282700 54.520600 43.324500 0
M  V30 9 H 76.873500 57.276600 42.289500 0
M  V30 10 H 75.739700 57.392200 39.779900 0
M  V30 11 H 73.607400 56.008100 39.973800 0
M  V30 12 R 73.492400 53.133200 41.743000 0
M  V30 END ATOM
M  V30 BEGIN BOND
M  V30 1 1 2 1
M  V30 2 2 3 2
M  V30 3 1 4 3
M  V30 4 2 5 4
M  V30 5 1 6 2
M  V30 6 1 6 5
M  V30 7 1 7 1
M  V30 8 1 8 1
M  V30 9 1 9 4
M  V30 10 1 10 5
M  V30 11 1 11 6
M  V30 12 1 12 1
M  V30 END BOND
M  V30 END CTAB
M  END
$$$$
R-group 223 (29198-2)
     RDKit          3D

  0  0  0  0  0  0  0  0  0  0999 V3000
M  V30 BEGIN CTAB
M  V30 COUNTS 15 14 0 0 1
M  V30 BEGIN ATOM
M  V30 1 C 73.478400 54.525600 42.306400 0
M  V30 2 C 74.768900 55.304500 42.017700 0
M  V30 3 C 74.419300 56.689000 41.511500 0 CFG=2
M  V30 4 O 73.671400 57.345600 42.516000 0
M  V30 5 C 73.689600 56.633500 40.145200 0
M  V30 6 F 74.472300 57.257000 39.324600 0
M  V30 7 F 73.496900 55.428600 39.625300 0
M  V30 8 F 72.531700 57.257400 40.124700 0
M  V30 9 H 72.604100 54.858900 41.758700 0
M  V30 10 H 73.271200 54.769300 43.324600 0
M  V30 11 H 75.367200 55.375600 42.927400 0
M  V30 12 H 75.418100 54.816000 41.296900 0
M  V30 13 H 75.347000 57.253200 41.403500 0
M  V30 14 H 72.907900 56.824500 42.714300 0
M  V30 15 R 73.507400 53.029400 42.097100 0
M  V30 END ATOM
M  V30 BEGIN BOND
M  V30 1 1 2 1
M  V30 2 1 3 2
M  V30 3 1 4 3
M  V30 4 1 5 3
M  V30 5 1 6 5
M  V30 6 1 7 5
M  V30 7 1 8 5
M  V30 8 1 9 1
M  V30 9 1 10 1
M  V30 10 1 11 2
M  V30 11 1 12 2
M  V30 12 1 3 13 CFG=3
M  V30 13 1 14 4
M  V30 14 1 15 1
M  V30 END BOND
M  V30 END CTAB
M  END
$$$$
R-group 224 (6704-1)
     RDKit          3D

  0  0  0  0  0  0  0  0  0  0999 V3000
M  V30 BEGIN CTAB
M  V30 COUNTS 13 12 0 0 1
M  V30 BEGIN ATOM
M  V30 1 C 73.936600 55.217800 41.760700 0 CFG=1
M  V30 2 C 75.380000 55.664800 42.053100 0
M  V30 3 S 73.363300 56.148200 40.234200 0
M  V30 4 N 73.085700 57.658000 40.925000 0
M  V30 5 O 74.472300 56.391100 39.324700 0
M  V30 6 O 72.073100 55.667400 39.724400 0
M  V30 7 H 73.326000 55.612700 42.574900 0
M  V30 8 H 75.697300 55.369700 43.050900 0
M  V30 9 H 76.071800 55.258300 41.319000 0
M  V30 10 H 75.470400 56.750600 42.013700 0
M  V30 11 H 73.719900 58.372600 40.572600 0
M  V30 12 H 72.103300 57.924100 40.883000 0
M  V30 13 R 73.691900 53.662600 41.782000 0
M  V30 END ATOM
M  V30 BEGIN BOND
M  V30 1 1 2 1
M  V30 2 1 3 1
M  V30 3 1 4 3
M  V30 4 2 5 3
M  V30 5 2 6 3
M  V30 6 1 1 7 CFG=1
M  V30 7 1 8 2
M  V30 8 1 9 2
M  V30 9 1 10 2
M  V30 10 1 11 4
M  V30 11 1 12 4
M  V30 12 1 13 1
M  V30 END BOND
M  V30 END CTAB
M  END
$$$$
R-group 225 (15567-1)
     RDKit          3D

  0  0  0  0  0  0  0  0  0  0999 V3000
M  V30 BEGIN CTAB
M  V30 COUNTS 24 24 0 0 1
M  V30 BEGIN ATOM
M  V30 1 C 74.342800 54.934900 42.523200 0
M  V30 2 O 75.271300 55.363900 43.208000 0
M  V30 3 N 73.672000 55.681300 41.673600 0
M  V30 4 C 73.907300 57.028600 41.227700 0 CFG=2
M  V30 5 C 73.272300 58.012800 42.220300 0
M  V30 6 C 73.353800 57.168700 39.788600 0
M  V30 7 C 72.419700 56.029900 39.325700 0
M  V30 8 C 72.964700 54.808800 38.914000 0
M  V30 9 C 72.104600 53.779400 38.455900 0
M  V30 10 C 70.718700 53.988100 38.489300 0
M  V30 11 C 70.255200 55.238700 38.924800 0
M  V30 12 N 71.083700 56.226700 39.324500 0
M  V30 13 H 74.986500 57.207300 41.205400 0
M  V30 14 H 73.630600 59.009800 42.018300 0
M  V30 15 H 72.188600 58.058600 42.130900 0
M  V30 16 H 73.525700 57.775700 43.255700 0
M  V30 17 H 72.880900 58.140500 39.727900 0
M  V30 18 H 74.183500 57.211400 39.082000 0
M  V30 19 H 74.031200 54.744100 38.797300 0
M  V30 20 H 72.497000 52.865200 38.041300 0
M  V30 21 H 70.028400 53.224600 38.160000 0
M  V30 22 H 69.194800 55.446300 38.960100 0
M  V30 23 H 72.899800 55.213900 41.214700 0
M  V30 24 R 73.857400 53.471400 42.567300 0
M  V30 END ATOM
M  V30 BEGIN BOND
M  V30 1 2 2 1
M  V30 2 1 3 1
M  V30 3 1 4 3
M  V30 4 1 5 4
M  V30 5 1 6 4
M  V30 6 1 7 6
M  V30 7 2 8 7
M  V30 8 1 9 8
M  V30 9 2 10 9
M  V30 10 1 11 10
M  V30 11 1 12 7
M  V30 12 2 12 11
M  V30 13 1 4 13 CFG=3
M  V30 14 1 14 5
M  V30 15 1 15 5
M  V30 16 1 16 5
M  V30 17 1 17 6
M  V30 18 1 18 6
M  V30 19 1 19 8
M  V30 20 1 20 9
M  V30 21 1 21 10
M  V30 22 1 22 11
M  V30 23 1 23 3
M  V30 24 1 24 1
M  V30 END BOND
M  V30 END CTAB
M  END
$$$$
R-group 226 (16161-2)
     RDKit          3D

  0  0  0  0  0  0  0  0  0  0999 V3000
M  V30 BEGIN CTAB
M  V30 COUNTS 19 19 0 0 1
M  V30 BEGIN ATOM
M  V30 1 O 74.265500 54.608100 42.210800 0
M  V30 2 C 73.284200 55.597800 42.136900 0 CFG=1
M  V30 3 C 73.826000 56.937600 42.605800 0
M  V30 4 C 73.048000 57.951400 41.784200 0
M  V30 5 C 72.805600 57.295800 40.423500 0 CFG=1
M  V30 6 C 73.824300 57.658600 39.339400 0
M  V30 7 C 72.873500 55.794600 40.667300 0
M  V30 8 H 72.472900 55.328200 42.809900 0
M  V30 9 H 73.673100 57.087300 43.673800 0
M  V30 10 H 74.892900 57.018700 42.390000 0
M  V30 11 H 72.079700 58.155900 42.250100 0
M  V30 12 H 73.593800 58.878800 41.724500 0
M  V30 13 H 71.803800 57.571300 40.109100 0
M  V30 14 H 74.847600 57.583300 39.703400 0
M  V30 15 H 73.742200 56.945200 38.524800 0
M  V30 16 H 73.675200 58.664700 38.942800 0
M  V30 17 H 73.634700 55.364300 40.021500 0
M  V30 18 H 71.948200 55.276000 40.412700 0
M  V30 19 R 73.748800 53.290100 42.183100 0
M  V30 END ATOM
M  V30 BEGIN BOND
M  V30 1 1 2 1
M  V30 2 1 3 2
M  V30 3 1 4 3
M  V30 4 1 5 4
M  V30 5 1 6 5
M  V30 6 1 7 2
M  V30 7 1 7 5
M  V30 8 1 2 8 CFG=1
M  V30 9 1 9 3
M  V30 10 1 10 3
M  V30 11 1 11 4
M  V30 12 1 12 4
M  V30 13 1 5 13 CFG=3
M  V30 14 1 14 6
M  V30 15 1 15 6
M  V30 16 1 16 6
M  V30 17 1 17 7
M  V30 18 1 18 7
M  V30 19 1 19 1
M  V30 END BOND
M  V30 END CTAB
M  END
$$$$
R-group 227 (15989-1)
     RDKit          3D

  0  0  0  0  0  0  0  0  0  0999 V3000
M  V30 BEGIN CTAB
M  V30 COUNTS 19 20 0 0 1
M  V30 BEGIN ATOM
M  V30 1 O 73.829600 54.714100 42.138900 0
M  V30 2 C 75.076500 55.161100 41.626200 0 CFG=2
M  V30 3 C 75.858600 55.789900 42.768700 0
M  V30 4 O 75.186800 56.995200 42.924700 0
M  V30 5 C 74.932500 57.496300 41.635000 0 CFG=2
M  V30 6 C 73.571400 58.168600 41.586400 0 CFG=2
M  V30 7 F 72.873800 57.756400 42.632600 0
M  V30 8 C 73.026700 57.656000 40.241200 0
M  V30 9 O 73.530500 56.336300 40.123200 0
M  V30 10 C 74.833900 56.318200 40.690900 0 CFG=2
M  V30 11 H 75.672400 54.392800 41.157100 0
M  V30 12 H 75.874700 55.215200 43.693000 0
M  V30 13 H 76.872200 56.058000 42.469700 0
M  V30 14 H 75.801400 58.058000 41.323800 0
M  V30 15 H 73.555300 59.250100 41.725000 0
M  V30 16 H 71.944700 57.658500 40.130500 0
M  V30 17 H 73.438100 58.247000 39.423600 0
M  V30 18 H 75.595400 56.390400 39.914500 0
M  V30 19 R 73.542700 53.339000 41.982200 0
M  V30 END ATOM
M  V30 BEGIN BOND
M  V30 1 1 2 1
M  V30 2 1 3 2
M  V30 3 1 4 3
M  V30 4 1 5 4
M  V30 5 1 6 5
M  V30 6 1 7 6
M  V30 7 1 8 6
M  V30 8 1 9 8
M  V30 9 1 10 2
M  V30 10 1 10 5
M  V30 11 1 10 9
M  V30 12 1 2 11 CFG=3
M  V30 13 1 12 3
M  V30 14 1 13 3
M  V30 15 1 5 14 CFG=3
M  V30 16 1 6 15 CFG=3
M  V30 17 1 16 8
M  V30 18 1 17 8
M  V30 19 1 10 18 CFG=3
M  V30 20 1 19 1
M  V30 END BOND
M  V30 END CTAB
M  END
$$$$
R-group 228 (4701-1)
     RDKit          3D

  0  0  0  0  0  0  0  0  0  0999 V3000
M  V30 BEGIN CTAB
M  V30 COUNTS 15 14 0 0 1
M  V30 BEGIN ATOM
M  V30 1 C 73.605300 54.784700 42.314400 0
M  V30 2 C 74.978100 55.456500 42.155000 0
M  V30 3 O 74.858800 56.858000 42.319100 0
M  V30 4 C 73.923600 57.522600 41.473600 0
M  V30 5 C 74.155300 57.258000 39.965300 0
M  V30 6 F 73.634700 56.107000 39.544700 0
M  V30 7 H 72.872300 55.250500 41.674400 0
M  V30 8 H 73.272300 55.004300 43.318800 0
M  V30 9 H 75.669400 55.097600 42.918700 0
M  V30 10 H 75.449900 55.246600 41.199800 0
M  V30 11 H 72.885700 57.336800 41.755200 0
M  V30 12 H 74.055100 58.566800 41.724700 0
M  V30 13 H 73.672800 58.032200 39.365500 0
M  V30 14 H 75.217500 57.257600 39.723500 0
M  V30 15 R 73.505900 53.289300 41.994800 0
M  V30 END ATOM
M  V30 BEGIN BOND
M  V30 1 1 2 1
M  V30 2 1 3 2
M  V30 3 1 4 3
M  V30 4 1 5 4
M  V30 5 1 6 5
M  V30 6 1 7 1
M  V30 7 1 8 1
M  V30 8 1 9 2
M  V30 9 1 10 2
M  V30 10 1 11 4
M  V30 11 1 12 4
M  V30 12 1 13 5
M  V30 13 1 14 5
M  V30 14 1 15 1
M  V30 END BOND
M  V30 END CTAB
M  END
$$$$
R-group 229 (7060-3)
     RDKit          3D

  0  0  0  0  0  0  0  0  0  0999 V3000
M  V30 BEGIN CTAB
M  V30 COUNTS 16 16 0 0 1
M  V30 BEGIN ATOM
M  V30 1 C 77.035500 57.908900 41.005400 0
M  V30 2 N 76.072100 56.867600 40.838700 0
M  V30 3 C 75.304600 56.402200 41.795900 0
M  V30 4 O 75.251000 56.858000 42.924600 0
M  V30 5 C 74.561900 55.261400 41.303200 0 CFG=2
M  V30 6 C 73.163600 55.587700 40.897800 0
M  V30 7 C 73.426000 54.698500 42.100400 0 CFG=1
M  V30 8 H 77.656500 58.038200 40.121200 0
M  V30 9 H 76.537100 58.837400 41.232900 0
M  V30 10 H 77.669700 57.656300 41.849600 0
M  V30 11 H 75.153300 54.583900 40.702000 0
M  V30 12 H 72.824800 55.169700 39.955400 0
M  V30 13 H 72.872800 56.628000 41.047800 0
M  V30 14 H 73.268500 55.153900 43.073900 0
M  V30 15 H 76.033500 56.422900 39.936300 0
M  V30 16 R 73.289400 53.189300 42.087700 0
M  V30 END ATOM
M  V30 BEGIN BOND
M  V30 1 1 2 1
M  V30 2 1 3 2
M  V30 3 2 4 3
M  V30 4 1 5 3
M  V30 5 1 6 5
M  V30 6 1 7 5
M  V30 7 1 7 6
M  V30 8 1 8 1
M  V30 9 1 9 1
M  V30 10 1 10 1
M  V30 11 1 5 11 CFG=3
M  V30 12 1 12 6
M  V30 13 1 13 6
M  V30 14 1 7 14 CFG=1
M  V30 15 1 15 2
M  V30 16 1 16 7
M  V30 END BOND
M  V30 END CTAB
M  END
$$$$
R-group 230 (16192-2)
     RDKit          3D

  0  0  0  0  0  0  0  0  0  0999 V3000
M  V30 BEGIN CTAB
M  V30 COUNTS 10 9 0 0 1
M  V30 BEGIN ATOM
M  V30 1 O 73.368800 54.857500 42.126800 0
M  V30 2 C 74.186500 55.897900 41.599100 0 CFG=1
M  V30 3 C 73.275400 57.107200 41.344100 0
M  V30 4 C 75.240500 56.211200 42.562600 0
M  V30 5 N 76.069300 56.458100 43.324500 0
M  V30 6 H 74.702400 55.637900 40.678100 0
M  V30 7 H 73.840300 57.944500 40.941900 0
M  V30 8 H 72.483600 56.875000 40.628100 0
M  V30 9 H 72.818300 57.443700 42.273600 0
M  V30 10 R 73.561100 53.507900 41.721900 0
M  V30 END ATOM
M  V30 BEGIN BOND
M  V30 1 1 2 1
M  V30 2 1 3 2
M  V30 3 1 4 2
M  V30 4 3 5 4
M  V30 5 1 2 6 CFG=3
M  V30 6 1 7 3
M  V30 7 1 8 3
M  V30 8 1 9 3
M  V30 9 1 10 1
M  V30 END BOND
M  V30 END CTAB
M  END
$$$$
R-group 231 (23238-2)
     RDKit          3D

  0  0  0  0  0  0  0  0  0  0999 V3000
M  V30 BEGIN CTAB
M  V30 COUNTS 16 17 0 0 1
M  V30 BEGIN ATOM
M  V30 1 C 74.742700 54.810900 42.154600 0 CFG=2
M  V30 2 C 74.833200 55.632000 43.475200 0
M  V30 3 C 74.052400 56.945200 43.248800 0
M  V30 4 N 73.829600 56.888600 41.850400 0
M  V30 5 C 73.271700 57.658200 40.944900 0
M  V30 6 N 73.286400 57.148400 39.724700 0
M  V30 7 C 73.934600 55.938200 39.863400 0
M  V30 8 C 74.204700 55.772800 41.200400 0
M  V30 9 H 75.749300 54.587300 41.816500 0
M  V30 10 H 74.473300 55.102400 44.353900 0
M  V30 11 H 75.880200 55.880500 43.667300 0
M  V30 12 H 73.087300 56.960900 43.756700 0
M  V30 13 H 74.624500 57.840000 43.494600 0
M  V30 14 H 72.842700 58.622400 41.176100 0
M  V30 15 H 74.074900 55.296300 39.008700 0
M  V30 16 R 73.935200 53.493400 42.249800 0
M  V30 END ATOM
M  V30 BEGIN BOND
M  V30 1 1 2 1
M  V30 2 1 3 2
M  V30 3 1 4 3
M  V30 4 1 5 4
M  V30 5 2 6 5
M  V30 6 1 7 6
M  V30 7 1 8 1
M  V30 8 1 8 4
M  V30 9 2 8 7
M  V30 10 1 1 9 CFG=3
M  V30 11 1 10 2
M  V30 12 1 11 2
M  V30 13 1 12 3
M  V30 14 1 13 3
M  V30 15 1 14 5
M  V30 16 1 15 7
M  V30 17 1 16 1
M  V30 END BOND
M  V30 END CTAB
M  END
$$$$
R-group 232 (11186-1)
     RDKit          3D

  0  0  0  0  0  0  0  0  0  0999 V3000
M  V30 BEGIN CTAB
M  V30 COUNTS 13 12 0 0 1
M  V30 BEGIN ATOM
M  V30 1 C 72.474000 58.277700 42.333700 0
M  V30 2 C 72.894600 57.066900 43.170200 0
M  V30 3 N 74.131300 56.515000 42.660900 0
M  V30 4 S 74.246300 55.602400 41.237700 0
M  V30 5 O 75.672300 55.617700 40.925100 0
M  V30 6 O 73.296500 56.142500 40.252100 0
M  V30 7 H 71.740800 58.858700 42.891900 0
M  V30 8 H 73.352300 58.878100 42.127700 0
M  V30 9 H 72.072300 58.044300 41.353700 0
M  V30 10 H 72.179500 56.259500 43.324900 0
M  V30 11 H 73.095100 57.463400 44.146900 0
M  V30 12 H 75.010200 56.810400 43.085000 0
M  V30 13 R 73.687200 53.893400 41.767200 0
M  V30 END ATOM
M  V30 BEGIN BOND
M  V30 1 1 2 1
M  V30 2 1 3 2
M  V30 3 1 4 3
M  V30 4 2 5 4
M  V30 5 2 6 4
M  V30 6 1 7 1
M  V30 7 1 8 1
M  V30 8 1 9 1
M  V30 9 1 10 2
M  V30 10 1 11 2
M  V30 11 1 12 3
M  V30 12 1 13 4
M  V30 END BOND
M  V30 END CTAB
M  END
$$$$
R-group 233 (13216-2)
     RDKit          3D

  0  0  0  0  0  0  0  0  0  0999 V3000
M  V30 BEGIN CTAB
M  V30 COUNTS 21 20 0 0 1
M  V30 BEGIN ATOM
M  V30 1 C 75.681100 57.484100 43.220000 0
M  V30 2 C 74.411600 57.818400 42.398000 0
M  V30 3 C 73.205700 57.041200 42.786400 0
M  V30 4 C 73.389400 55.536400 42.784400 0
M  V30 5 C 73.904500 54.844600 41.496600 0 CFG=2
M  V30 6 C 75.413600 55.048700 41.226900 0
M  V30 7 O 73.270400 55.420700 40.372800 0
M  V30 8 H 76.593900 57.735800 42.671900 0
M  V30 9 H 75.672200 58.059100 44.123300 0
M  V30 10 H 75.780500 56.447300 43.526200 0
M  V30 11 H 74.589200 57.710600 41.332900 0
M  V30 12 H 74.071900 58.855600 42.505900 0
M  V30 13 H 72.475000 57.323900 42.041100 0
M  V30 14 H 72.839300 57.369800 43.762400 0
M  V30 15 H 72.394800 55.165200 43.005800 0
M  V30 16 H 74.027600 55.257900 43.631700 0
M  V30 17 H 75.993600 54.859100 42.124900 0
M  V30 18 H 75.795400 54.391700 40.456200 0
M  V30 19 H 75.683600 56.036000 40.864100 0
M  V30 20 H 73.577700 54.973000 39.602300 0
M  V30 21 R 73.522700 53.342000 41.637400 0
M  V30 END ATOM
M  V30 BEGIN BOND
M  V30 1 1 2 1
M  V30 2 1 3 2
M  V30 3 1 4 3
M  V30 4 1 5 4
M  V30 5 1 6 5
M  V30 6 1 7 5
M  V30 7 1 8 1
M  V30 8 1 9 1
M  V30 9 1 10 1
M  V30 10 1 11 2
M  V30 11 1 12 2
M  V30 12 1 13 3
M  V30 13 1 14 3
M  V30 14 1 15 4
M  V30 15 1 16 4
M  V30 16 1 17 6
M  V30 17 1 18 6
M  V30 18 1 19 6
M  V30 19 1 20 7
M  V30 20 1 5 21 CFG=1
M  V30 END BOND
M  V30 END CTAB
M  END
$$$$
R-group 234 (42593-1)
     RDKit          3D

  0  0  0  0  0  0  0  0  0  0999 V3000
M  V30 BEGIN CTAB
M  V30 COUNTS 12 11 0 0 1
M  V30 BEGIN ATOM
M  V30 1 C 73.419300 55.066200 42.517200 0
M  V30 2 C 73.701400 56.153600 41.456200 0
M  V30 3 O 74.996300 55.991300 40.907300 0
M  V30 4 C 76.060800 56.532400 41.549300 0
M  V30 5 F 76.472200 57.657900 40.924700 0
M  V30 6 F 75.798900 56.829700 42.846900 0
M  V30 7 H 72.429400 55.258100 42.924700 0
M  V30 8 H 74.071900 55.223400 43.373600 0
M  V30 9 H 72.979200 56.096000 40.643100 0
M  V30 10 H 73.578400 57.153600 41.875600 0
M  V30 11 H 76.872200 55.821900 41.515300 0
M  V30 12 R 73.452600 53.573100 42.068400 0
M  V30 END ATOM
M  V30 BEGIN BOND
M  V30 1 1 2 1
M  V30 2 1 3 2
M  V30 3 1 4 3
M  V30 4 1 5 4
M  V30 5 1 6 4
M  V30 6 1 7 1
M  V30 7 1 8 1
M  V30 8 1 9 2
M  V30 9 1 10 2
M  V30 10 1 11 4
M  V30 11 1 12 1
M  V30 END BOND
M  V30 END CTAB
M  END
$$$$
R-group 235 (19214-1)
     RDKit          3D

  0  0  0  0  0  0  0  0  0  0999 V3000
M  V30 BEGIN CTAB
M  V30 COUNTS 14 14 0 0 1
M  V30 BEGIN ATOM
M  V30 1 C 73.528900 54.926600 42.710700 0
M  V30 2 C 74.101900 55.805500 41.658800 0
M  V30 3 N 73.545700 55.990800 40.456600 0
M  V30 4 N 74.471300 56.663700 39.724700 0
M  V30 5 C 75.478600 56.858000 40.570200 0
M  V30 6 N 75.264100 56.457600 41.819900 0
M  V30 7 C 76.072100 56.725400 42.985000 0
M  V30 8 H 72.511200 55.259300 42.918600 0
M  V30 9 H 74.072100 55.096600 43.641000 0
M  V30 10 H 76.359800 57.415500 40.286800 0
M  V30 11 H 76.872200 57.409200 42.702800 0
M  V30 12 H 75.464700 57.239600 43.724400 0
M  V30 13 H 76.471500 55.807800 43.412900 0
M  V30 14 R 73.507100 53.415900 42.335000 0
M  V30 END ATOM
M  V30 BEGIN BOND
M  V30 1 1 2 1
M  V30 2 2 3 2
M  V30 3 1 4 3
M  V30 4 2 5 4
M  V30 5 1 6 2
M  V30 6 1 6 5
M  V30 7 1 7 6
M  V30 8 1 8 1
M  V30 9 1 9 1
M  V30 10 1 10 5
M  V30 11 1 11 7
M  V30 12 1 12 7
M  V30 13 1 13 7
M  V30 14 1 14 1
M  V30 END BOND
M  V30 END CTAB
M  END
$$$$
R-group 236 (24633-2)
     RDKit          3D

  0  0  0  0  0  0  0  0  0  0999 V3000
M  V30 BEGIN CTAB
M  V30 COUNTS 19 18 0 0 1
M  V30 BEGIN ATOM
M  V30 1 O 74.554400 55.096600 41.929400 0
M  V30 2 C 74.562800 56.028700 43.007800 0
M  V30 3 C 73.344700 56.977800 42.950900 0
M  V30 4 C 73.288600 57.916400 41.718100 0 CFG=2
M  V30 5 C 72.230800 59.042600 41.803900 0
M  V30 6 C 73.159000 57.122200 40.399900 0
M  V30 7 O 74.429900 56.802900 39.896700 0
M  V30 8 H 75.478800 56.616400 42.940300 0
M  V30 9 H 74.604200 55.504300 43.962000 0
M  V30 10 H 73.315100 57.600600 43.842000 0
M  V30 11 H 72.472200 56.347600 43.018900 0
M  V30 12 H 74.227700 58.456600 41.724100 0
M  V30 13 H 71.271800 58.700100 42.125100 0
M  V30 14 H 72.472000 59.812700 42.524600 0
M  V30 15 H 72.072600 59.544100 40.849400 0
M  V30 16 H 72.651200 57.658000 39.620800 0
M  V30 17 H 72.570800 56.218800 40.524300 0
M  V30 18 H 74.821600 56.190900 40.510600 0
M  V30 19 R 73.894800 53.844500 42.122000 0
M  V30 END ATOM
M  V30 BEGIN BOND
M  V30 1 1 2 1
M  V30 2 1 3 2
M  V30 3 1 4 3
M  V30 4 1 5 4
M  V30 5 1 6 4
M  V30 6 1 7 6
M  V30 7 1 8 2
M  V30 8 1 9 2
M  V30 9 1 10 3
M  V30 10 1 11 3
M  V30 11 1 4 12 CFG=3
M  V30 12 1 13 5
M  V30 13 1 14 5
M  V30 14 1 15 5
M  V30 15 1 16 6
M  V30 16 1 17 6
M  V30 17 1 18 7
M  V30 18 1 19 1
M  V30 END BOND
M  V30 END CTAB
M  END
$$$$
R-group 237 (17204-2)
     RDKit          3D

  0  0  0  0  0  0  0  0  0  0999 V3000
M  V30 BEGIN CTAB
M  V30 COUNTS 17 17 0 0 1
M  V30 BEGIN ATOM
M  V30 1 C 74.828100 55.213900 42.196400 0 CFG=2
M  V30 2 C 75.493400 55.631100 43.550800 0
M  V30 3 C 73.901800 56.340600 41.726600 0
M  V30 4 O 73.272200 56.707300 42.924700 0
M  V30 5 C 74.389800 57.602400 41.058700 0
M  V30 6 O 73.272400 57.593500 40.126000 0
M  V30 7 C 73.107700 56.206700 40.406900 0
M  V30 8 H 75.643200 55.131600 41.478500 0
M  V30 9 H 74.897200 55.272900 44.393300 0
M  V30 10 H 76.472200 55.258000 43.725100 0
M  V30 11 H 75.636900 56.710400 43.634500 0
M  V30 12 H 74.339300 58.457400 41.724700 0
M  V30 13 H 75.365400 57.503600 40.576300 0
M  V30 14 H 73.635000 55.628400 39.646900 0
M  V30 15 H 72.072400 55.891900 40.428900 0
M  V30 16 H 73.001900 55.910600 43.364900 0
M  V30 17 R 74.080200 53.819600 42.264300 0
M  V30 END ATOM
M  V30 BEGIN BOND
M  V30 1 1 2 1
M  V30 2 1 3 1
M  V30 3 1 4 3
M  V30 4 1 5 3
M  V30 5 1 6 5
M  V30 6 1 7 3
M  V30 7 1 7 6
M  V30 8 1 1 8 CFG=3
M  V30 9 1 9 2
M  V30 10 1 10 2
M  V30 11 1 11 2
M  V30 12 1 12 5
M  V30 13 1 13 5
M  V30 14 1 14 7
M  V30 15 1 15 7
M  V30 16 1 16 4
M  V30 17 1 17 1
M  V30 END BOND
M  V30 END CTAB
M  END
$$$$
R-group 238 (1288-1)
     RDKit          3D

  0  0  0  0  0  0  0  0  0  0999 V3000
M  V30 BEGIN CTAB
M  V30 COUNTS 15 14 0 0 1
M  V30 BEGIN ATOM
M  V30 1 C 74.388100 55.015400 42.380300 0
M  V30 2 C 73.472300 56.137800 41.885600 0
M  V30 3 C 74.128600 57.389500 41.324400 0
M  V30 4 C 75.224600 57.062400 40.300400 0
M  V30 5 O 76.472200 57.258000 40.924700 0
M  V30 6 H 74.625500 55.226000 43.424100 0
M  V30 7 H 75.353100 55.022600 41.878400 0
M  V30 8 H 72.872300 55.773400 41.065900 0
M  V30 9 H 72.837600 56.426000 42.718400 0
M  V30 10 H 73.353900 57.977100 40.829700 0
M  V30 11 H 74.472300 58.021600 42.140300 0
M  V30 12 H 75.147400 56.043600 39.931300 0
M  V30 13 H 75.129600 57.658000 39.399700 0
M  V30 14 H 77.154500 57.140200 40.278600 0
M  V30 15 R 73.780100 53.597300 42.240800 0
M  V30 END ATOM
M  V30 BEGIN BOND
M  V30 1 1 2 1
M  V30 2 1 3 2
M  V30 3 1 4 3
M  V30 4 1 5 4
M  V30 5 1 6 1
M  V30 6 1 7 1
M  V30 7 1 8 2
M  V30 8 1 9 2
M  V30 9 1 10 3
M  V30 10 1 11 3
M  V30 11 1 12 4
M  V30 12 1 13 4
M  V30 13 1 14 5
M  V30 14 1 15 1
M  V30 END BOND
M  V30 END CTAB
M  END
$$$$
R-group 239 (16031-1)
     RDKit          3D

  0  0  0  0  0  0  0  0  0  0999 V3000
M  V30 BEGIN CTAB
M  V30 COUNTS 16 15 0 0 1
M  V30 BEGIN ATOM
M  V30 1 C 73.691200 57.258700 39.245400 0
M  V30 2 N 73.878300 56.536100 40.483000 0
M  V30 3 C 75.021400 56.407900 41.165300 0
M  V30 4 O 76.055500 57.029000 40.924800 0
M  V30 5 C 75.015000 55.323700 42.235600 0 CFG=1
M  V30 6 C 75.499400 55.825400 43.599800 0
M  V30 7 O 73.690400 54.803400 42.379100 0
M  V30 8 H 72.739300 56.968500 38.803400 0
M  V30 9 H 73.671400 58.337400 39.392200 0
M  V30 10 H 74.472500 57.010600 38.526100 0
M  V30 11 H 75.699900 54.572800 41.868600 0
M  V30 12 H 76.570200 55.701800 43.725600 0
M  V30 13 H 75.280700 56.887200 43.724600 0
M  V30 14 H 75.028200 55.258000 44.404900 0
M  V30 15 H 73.112900 55.965000 40.812400 0
M  V30 16 R 73.467100 53.427800 42.060200 0
M  V30 END ATOM
M  V30 BEGIN BOND
M  V30 1 1 2 1
M  V30 2 1 3 2
M  V30 3 2 4 3
M  V30 4 1 5 3
M  V30 5 1 6 5
M  V30 6 1 7 5
M  V30 7 1 8 1
M  V30 8 1 9 1
M  V30 9 1 10 1
M  V30 10 1 5 11 CFG=3
M  V30 11 1 12 6
M  V30 12 1 13 6
M  V30 13 1 14 6
M  V30 14 1 15 2
M  V30 15 1 16 7
M  V30 END BOND
M  V30 END CTAB
M  END
$$$$
R-group 240 (10204-1)
     RDKit          3D

  0  0  0  0  0  0  0  0  0  0999 V3000
M  V30 BEGIN CTAB
M  V30 COUNTS 12 11 0 0 1
M  V30 BEGIN ATOM
M  V30 1 C 74.360100 55.257900 42.375600 0
M  V30 2 C 73.310300 56.379600 42.277500 0 CFG=1
M  V30 3 O 73.781700 57.540600 42.904000 0
M  V30 4 C 72.965000 56.817900 40.826400 0
M  V30 5 F 74.059200 56.858200 40.065300 0
M  V30 6 H 74.758200 55.314700 43.388800 0
M  V30 7 H 75.218200 55.469700 41.737800 0
M  V30 8 H 72.472300 56.103600 42.924600 0
M  V30 9 H 72.293500 56.147900 40.298800 0
M  V30 10 H 72.491500 57.801300 40.798100 0
M  V30 11 H 73.963800 57.342400 43.809100 0
M  V30 12 R 73.838400 53.810800 42.141700 0
M  V30 END ATOM
M  V30 BEGIN BOND
M  V30 1 1 2 1
M  V30 2 1 3 2
M  V30 3 1 4 2
M  V30 4 1 5 4
M  V30 5 1 6 1
M  V30 6 1 7 1
M  V30 7 1 2 8 CFG=1
M  V30 8 1 9 4
M  V30 9 1 10 4
M  V30 10 1 11 3
M  V30 11 1 12 1
M  V30 END BOND
M  V30 END CTAB
M  END
$$$$
R-group 241 (25372-2)
     RDKit          3D

  0  0  0  0  0  0  0  0  0  0999 V3000
M  V30 BEGIN CTAB
M  V30 COUNTS 16 16 0 0 1
M  V30 BEGIN ATOM
M  V30 1 S 74.237800 55.418000 41.990900 0 CFG=2
M  V30 2 N 73.272700 56.183300 42.924700 0
M  V30 3 O 75.672100 55.657900 42.135900 0
M  V30 4 C 73.771800 55.970900 40.338700 0
M  V30 5 C 74.072200 57.406400 40.332900 0
M  V30 6 C 73.427800 58.254100 39.324700 0
M  V30 7 C 72.968300 58.322200 40.769800 0
M  V30 8 H 73.205200 55.762700 43.860800 0
M  V30 9 H 74.364500 55.511900 39.558800 0
M  V30 10 H 72.711900 55.797700 40.159400 0
M  V30 11 H 75.088900 57.658000 40.633200 0
M  V30 12 H 73.960500 59.112300 38.924700 0
M  V30 13 H 72.872300 57.658000 38.601500 0
M  V30 14 H 72.072200 57.813200 41.036400 0
M  V30 15 H 73.272000 59.049200 41.514800 0
M  V30 16 R 73.724300 53.620100 42.047000 0
M  V30 END ATOM
M  V30 BEGIN BOND
M  V30 1 2 2 1
M  V30 2 2 3 1
M  V30 3 1 4 1
M  V30 4 1 5 4
M  V30 5 1 6 5
M  V30 6 1 7 5
M  V30 7 1 7 6
M  V30 8 1 8 2
M  V30 9 1 9 4
M  V30 10 1 10 4
M  V30 11 1 11 5
M  V30 12 1 12 6
M  V30 13 1 13 6
M  V30 14 1 14 7
M  V30 15 1 15 7
M  V30 16 1 1 16 CFG=3
M  V30 END BOND
M  V30 END CTAB
M  END
$$$$
R-group 242 (41656-1)
     RDKit          3D

  0  0  0  0  0  0  0  0  0  0999 V3000
M  V30 BEGIN CTAB
M  V30 COUNTS 19 19 0 0 1
M  V30 BEGIN ATOM
M  V30 1 C 72.229000 56.662700 39.201400 0
M  V30 2 C 73.484100 56.290100 39.925800 0
M  V30 3 O 74.540700 56.858200 39.722100 0
M  V30 4 N 73.272900 55.354500 40.833900 0
M  V30 5 C 74.068700 54.796300 41.900000 0
M  V30 6 C 74.077000 55.758000 43.113200 0
M  V30 7 C 75.455100 56.285300 42.710600 0
M  V30 8 C 75.563000 55.109300 41.738100 0
M  V30 9 H 71.642200 55.788200 38.922100 0
M  V30 10 H 71.660600 57.256900 39.896400 0
M  V30 11 H 72.470300 57.258100 38.342200 0
M  V30 12 H 73.288500 56.511200 43.114000 0
M  V30 13 H 74.125900 55.258800 44.076200 0
M  V30 14 H 75.412400 57.257000 42.216100 0
M  V30 15 H 76.193200 56.273800 43.513400 0
M  V30 16 H 76.072200 54.265600 42.126500 0
M  V30 17 H 75.970500 55.315200 40.751200 0
M  V30 18 H 72.332300 54.990600 40.826200 0
M  V30 19 R 73.577800 53.330500 42.062400 0
M  V30 END ATOM
M  V30 BEGIN BOND
M  V30 1 1 2 1
M  V30 2 2 3 2
M  V30 3 1 4 2
M  V30 4 1 5 4
M  V30 5 1 6 5
M  V30 6 1 7 6
M  V30 7 1 8 5
M  V30 8 1 8 7
M  V30 9 1 9 1
M  V30 10 1 10 1
M  V30 11 1 11 1
M  V30 12 1 12 6
M  V30 13 1 13 6
M  V30 14 1 14 7
M  V30 15 1 15 7
M  V30 16 1 16 8
M  V30 17 1 17 8
M  V30 18 1 18 4
M  V30 19 1 19 5
M  V30 END BOND
M  V30 END CTAB
M  END
$$$$
R-group 243 (23260-2)
     RDKit          3D

  0  0  0  0  0  0  0  0  0  0999 V3000
M  V30 BEGIN CTAB
M  V30 COUNTS 16 15 0 0 1
M  V30 BEGIN ATOM
M  V30 1 C 73.441900 54.506000 42.231700 0
M  V30 2 C 74.720300 55.302200 41.895800 0
M  V30 3 C 74.404300 56.762600 41.635800 0 CFG=2
M  V30 4 N 73.672800 57.262900 42.782000 0
M  V30 5 C 73.634300 56.989700 40.316900 0
M  V30 6 F 74.471300 57.217500 39.325300 0
M  V30 7 F 72.868300 55.991900 39.897900 0
M  V30 8 F 72.872200 58.057800 40.525900 0
M  V30 9 H 72.523900 54.859800 41.784400 0
M  V30 10 H 73.274600 54.675600 43.270200 0
M  V30 11 H 75.420600 55.217000 42.729500 0
M  V30 12 H 75.268000 54.909000 41.050600 0
M  V30 13 H 75.336100 57.326500 41.586900 0
M  V30 14 H 73.332600 58.190800 42.544300 0
M  V30 15 H 72.856800 56.687800 42.940300 0
M  V30 16 R 73.455800 53.024900 41.955200 0
M  V30 END ATOM
M  V30 BEGIN BOND
M  V30 1 1 2 1
M  V30 2 1 3 2
M  V30 3 1 4 3
M  V30 4 1 5 3
M  V30 5 1 6 5
M  V30 6 1 7 5
M  V30 7 1 8 5
M  V30 8 1 9 1
M  V30 9 1 10 1
M  V30 10 1 11 2
M  V30 11 1 12 2
M  V30 12 1 3 13 CFG=3
M  V30 13 1 14 4
M  V30 14 1 15 4
M  V30 15 1 16 1
M  V30 END BOND
M  V30 END CTAB
M  END
$$$$
R-group 244 (43046-3)
     RDKit          3D

  0  0  0  0  0  0  0  0  0  0999 V3000
M  V30 BEGIN CTAB
M  V30 COUNTS 19 19 0 0 1
M  V30 BEGIN ATOM
M  V30 1 C 74.232800 54.918800 42.926700 0 CFG=1
M  V30 2 C 75.608100 55.462700 42.574700 0
M  V30 3 C 74.853500 56.695200 42.141700 0 CFG=1
M  V30 4 C 74.943800 57.258100 40.737600 0
M  V30 5 C 74.703600 56.279800 39.618900 0
M  V30 6 C 76.384300 57.828500 40.516700 0
M  V30 7 O 73.605700 56.009800 42.247900 0
M  V30 8 H 74.075300 55.065100 43.992600 0
M  V30 9 H 76.270400 55.655100 43.421300 0
M  V30 10 H 76.073000 54.934100 41.748700 0
M  V30 11 H 74.929800 57.467900 42.909000 0
M  V30 12 H 74.072300 57.939900 40.648600 0
M  V30 13 H 75.509100 55.580800 39.730100 0
M  V30 14 H 73.733900 55.794500 39.679700 0
M  V30 15 H 74.800600 56.746400 38.644300 0
M  V30 16 H 77.120600 57.037600 40.405200 0
M  V30 17 H 76.470300 58.456900 39.630400 0
M  V30 18 H 76.723200 58.452600 41.324800 0
M  V30 19 R 73.743900 53.524500 42.461900 0
M  V30 END ATOM
M  V30 BEGIN BOND
M  V30 1 1 2 1
M  V30 2 1 3 2
M  V30 3 1 4 3
M  V30 4 1 5 4
M  V30 5 1 6 4
M  V30 6 1 7 1
M  V30 7 1 7 3
M  V30 8 1 1 8 CFG=1
M  V30 9 1 9 2
M  V30 10 1 10 2
M  V30 11 1 3 11 CFG=1
M  V30 12 1 12 4
M  V30 13 1 13 5
M  V30 14 1 14 5
M  V30 15 1 15 5
M  V30 16 1 16 6
M  V30 17 1 17 6
M  V30 18 1 18 6
M  V30 19 1 19 1
M  V30 END BOND
M  V30 END CTAB
M  END
$$$$
R-group 245 (41818-1)
     RDKit          3D

  0  0  0  0  0  0  0  0  0  0999 V3000
M  V30 BEGIN CTAB
M  V30 COUNTS 20 20 0 0 1
M  V30 BEGIN ATOM
M  V30 1 N 73.059000 54.184600 42.123400 0
M  V30 2 C 73.984200 55.063700 41.749000 0
M  V30 3 O 75.023500 54.710600 41.205700 0
M  V30 4 C 73.743000 56.543800 42.047000 0 CFG=1
M  V30 5 C 74.966200 57.098700 42.807100 0
M  V30 6 C 76.152800 57.255900 41.876400 0
M  V30 7 C 76.072600 57.257900 40.550700 0
M  V30 8 C 74.752200 57.257900 39.772700 0
M  V30 9 C 73.525800 57.329700 40.726400 0
M  V30 10 H 72.872000 56.642900 42.691900 0
M  V30 11 H 74.734600 58.036100 43.321100 0
M  V30 12 H 75.272600 56.400600 43.587700 0
M  V30 13 H 77.112000 57.422100 42.323400 0
M  V30 14 H 76.997200 57.396800 40.021900 0
M  V30 15 H 74.717100 58.041700 39.006300 0
M  V30 16 H 74.720500 56.327500 39.208500 0
M  V30 17 H 72.640500 56.962200 40.203900 0
M  V30 18 H 73.306900 58.370800 40.973900 0
M  V30 19 H 72.275800 54.512500 42.674200 0
M  V30 20 R 73.204800 52.756000 41.980400 0
M  V30 END ATOM
M  V30 BEGIN BOND
M  V30 1 1 2 1
M  V30 2 2 3 2
M  V30 3 1 4 2
M  V30 4 1 5 4
M  V30 5 1 6 5
M  V30 6 2 7 6
M  V30 7 1 8 7
M  V30 8 1 9 4
M  V30 9 1 9 8
M  V30 10 1 4 10 CFG=1
M  V30 11 1 11 5
M  V30 12 1 12 5
M  V30 13 1 13 6
M  V30 14 1 14 7
M  V30 15 1 15 8
M  V30 16 1 16 8
M  V30 17 1 17 9
M  V30 18 1 18 9
M  V30 19 1 19 1
M  V30 20 1 20 1
M  V30 END BOND
M  V30 END CTAB
M  END
$$$$
R-group 246 (11262-1)
     RDKit          3D

  0  0  0  0  0  0  0  0  0  0999 V3000
M  V30 BEGIN CTAB
M  V30 COUNTS 22 22 0 0 1
M  V30 BEGIN ATOM
M  V30 1 C 74.424600 54.993600 41.985800 0
M  V30 2 C 75.133700 55.496400 43.260200 0
M  V30 3 C 75.453000 56.980600 43.101100 0 CFG=1
M  V30 4 C 76.474700 57.236700 41.976000 0
M  V30 5 O 74.211500 57.657900 42.924400 0
M  V30 6 C 73.603400 57.447400 41.681800 0 CFG=2
M  V30 7 C 72.472400 58.488100 41.542900 0
M  V30 8 C 73.272300 55.953900 41.711400 0
M  V30 9 H 75.145800 55.058600 41.176600 0
M  V30 10 H 74.482300 55.338200 44.118700 0
M  V30 11 H 76.063800 54.972700 43.487800 0
M  V30 12 H 75.897100 57.325500 44.032700 0
M  V30 13 H 77.272200 56.531500 42.096200 0
M  V30 14 H 76.145300 57.037100 40.961700 0
M  V30 15 H 76.872400 58.241500 41.994300 0
M  V30 16 H 74.239900 57.657900 40.832200 0
M  V30 17 H 72.056000 58.470000 40.531200 0
M  V30 18 H 71.678500 58.458100 42.281200 0
M  V30 19 H 72.871700 59.482900 41.724700 0
M  V30 20 H 72.775200 55.697700 40.780700 0
M  V30 21 H 72.643800 55.774800 42.586700 0
M  V30 22 R 73.855700 53.548200 42.052300 0
M  V30 END ATOM
M  V30 BEGIN BOND
M  V30 1 1 2 1
M  V30 2 1 3 2
M  V30 3 1 4 3
M  V30 4 1 5 3
M  V30 5 1 6 5
M  V30 6 1 7 6
M  V30 7 1 8 1
M  V30 8 1 8 6
M  V30 9 1 9 1
M  V30 10 1 10 2
M  V30 11 1 11 2
M  V30 12 1 3 12 CFG=1
M  V30 13 1 13 4
M  V30 14 1 14 4
M  V30 15 1 15 4
M  V30 16 1 6 16 CFG=3
M  V30 17 1 17 7
M  V30 18 1 18 7
M  V30 19 1 19 7
M  V30 20 1 20 8
M  V30 21 1 21 8
M  V30 22 1 22 1
M  V30 END BOND
M  V30 END CTAB
M  END
$$$$
R-group 247 (10311-1)
     RDKit          3D

  0  0  0  0  0  0  0  0  0  0999 V3000
M  V30 BEGIN CTAB
M  V30 COUNTS 9 8 0 0 1
M  V30 BEGIN ATOM
M  V30 1 C 73.768400 54.937600 42.266600 0
M  V30 2 O 74.854900 55.465600 41.534600 0
M  V30 3 C 75.157400 56.750700 41.807400 0
M  V30 4 F 74.057600 57.542300 41.725300 0
M  V30 5 F 75.696200 56.857900 43.040600 0
M  V30 6 F 76.072300 57.211500 40.924700 0
M  V30 7 H 72.872600 55.487200 42.004900 0
M  V30 8 H 73.924100 55.088800 43.328800 0
M  V30 9 R 73.558900 53.459500 41.943000 0
M  V30 END ATOM
M  V30 BEGIN BOND
M  V30 1 1 2 1
M  V30 2 1 3 2
M  V30 3 1 4 3
M  V30 4 1 5 3
M  V30 5 1 6 3
M  V30 6 1 7 1
M  V30 7 1 8 1
M  V30 8 1 9 1
M  V30 END BOND
M  V30 END CTAB
M  END
$$$$
R-group 248 (11078-2)
     RDKit          3D

  0  0  0  0  0  0  0  0  0  0999 V3000
M  V30 BEGIN CTAB
M  V30 COUNTS 22 22 0 0 1
M  V30 BEGIN ATOM
M  V30 1 C 73.626400 54.688700 41.696900 0 CFG=1
M  V30 2 C 72.910900 55.222300 42.924700 0
M  V30 3 C 75.120500 55.124000 41.681500 0
M  V30 4 C 75.356400 56.599300 41.435000 0 CFG=1
M  V30 5 C 75.119600 57.028000 39.999000 0
M  V30 6 C 73.732200 57.658000 39.997000 0
M  V30 7 C 73.511500 58.038300 41.464200 0
M  V30 8 O 74.431000 57.274000 42.246700 0
M  V30 9 H 73.111900 55.088800 40.829400 0
M  V30 10 H 73.672100 55.258000 43.724100 0
M  V30 11 H 72.493100 56.215500 42.924900 0
M  V30 12 H 72.023800 54.634300 43.163600 0
M  V30 13 H 75.600400 54.882500 42.629100 0
M  V30 14 H 75.672700 54.568700 40.936600 0
M  V30 15 H 76.369100 56.858000 41.740300 0
M  V30 16 H 75.898100 57.735000 39.725700 0
M  V30 17 H 75.219600 56.188100 39.322800 0
M  V30 18 H 73.671700 58.510400 39.323800 0
M  V30 19 H 72.981100 56.940900 39.669600 0
M  V30 20 H 73.671800 59.074200 41.724800 0
M  V30 21 H 72.472300 57.879400 41.730300 0
M  V30 22 R 73.456100 53.157300 41.685300 0
M  V30 END ATOM
M  V30 BEGIN BOND
M  V30 1 1 2 1
M  V30 2 1 3 1
M  V30 3 1 4 3
M  V30 4 1 5 4
M  V30 5 1 6 5
M  V30 6 1 7 6
M  V30 7 1 8 4
M  V30 8 1 8 7
M  V30 9 1 1 9 CFG=3
M  V30 10 1 10 2
M  V30 11 1 11 2
M  V30 12 1 12 2
M  V30 13 1 13 3
M  V30 14 1 14 3
M  V30 15 1 4 15 CFG=1
M  V30 16 1 16 5
M  V30 17 1 17 5
M  V30 18 1 18 6
M  V30 19 1 19 6
M  V30 20 1 20 7
M  V30 21 1 21 7
M  V30 22 1 22 1
M  V30 END BOND
M  V30 END CTAB
M  END
$$$$
R-group 249 (25024-1)
     RDKit          3D

  0  0  0  0  0  0  0  0  0  0999 V3000
M  V30 BEGIN CTAB
M  V30 COUNTS 22 22 0 0 1
M  V30 BEGIN ATOM
M  V30 1 S 74.418500 55.340200 41.628600 0
M  V30 2 O 74.323000 56.262000 42.766700 0
M  V30 3 O 75.672200 55.260800 40.887500 0
M  V30 4 N 73.272200 55.896100 40.483900 0
M  V30 5 C 73.109000 55.474900 39.086600 0
M  V30 6 C 71.980100 54.457900 38.841800 0
M  V30 7 C 72.188100 53.336400 38.005700 0
M  V30 8 C 71.146500 52.426400 37.742600 0
M  V30 9 C 69.867500 52.646900 38.286400 0
M  V30 10 N 68.835000 51.744200 38.040600 0
M  V30 11 C 69.632800 53.793600 39.067100 0
M  V30 12 C 70.680100 54.699800 39.325100 0
M  V30 13 H 72.874600 56.378800 38.525200 0
M  V30 14 H 74.060000 55.143500 38.674800 0
M  V30 15 H 73.155900 53.173100 37.553800 0
M  V30 16 H 71.334800 51.566400 37.116800 0
M  V30 17 H 67.939300 51.838900 38.496300 0
M  V30 18 H 69.006100 50.870300 37.564800 0
M  V30 19 H 68.650600 53.985400 39.473700 0
M  V30 20 H 70.483900 55.579900 39.918700 0
M  V30 21 H 72.898900 56.817300 40.710100 0
M  V30 22 R 73.857400 53.645600 42.219500 0
M  V30 END ATOM
M  V30 BEGIN BOND
M  V30 1 2 2 1
M  V30 2 2 3 1
M  V30 3 1 4 1
M  V30 4 1 5 4
M  V30 5 1 6 5
M  V30 6 2 7 6
M  V30 7 1 8 7
M  V30 8 2 9 8
M  V30 9 1 10 9
M  V30 10 1 11 9
M  V30 11 1 12 6
M  V30 12 2 12 11
M  V30 13 1 13 5
M  V30 14 1 14 5
M  V30 15 1 15 7
M  V30 16 1 16 8
M  V30 17 1 17 10
M  V30 18 1 18 10
M  V30 19 1 19 11
M  V30 20 1 20 12
M  V30 21 1 21 4
M  V30 22 1 22 1
M  V30 END BOND
M  V30 END CTAB
M  END
$$$$
R-group 250 (2935-2)
     RDKit          3D

  0  0  0  0  0  0  0  0  0  0999 V3000
M  V30 BEGIN CTAB
M  V30 COUNTS 15 14 0 0 1
M  V30 BEGIN ATOM
M  V30 1 C 76.691900 57.462300 40.873600 0
M  V30 2 C 75.383700 56.740800 41.154600 0
M  V30 3 O 74.458600 56.857000 40.352400 0
M  V30 4 N 75.320600 56.030500 42.293400 0
M  V30 5 C 74.177400 55.333400 42.888700 0 CFG=1
M  V30 6 C 72.993500 56.285500 43.052600 0
M  V30 7 H 77.272000 57.577900 41.786100 0
M  V30 8 H 77.271500 56.918500 40.128300 0
M  V30 9 H 76.504500 58.457000 40.473800 0
M  V30 10 H 74.483200 55.201600 43.923900 0
M  V30 11 H 72.081900 55.753600 43.328100 0
M  V30 12 H 73.187000 57.020600 43.831900 0
M  V30 13 H 72.857400 56.859600 42.144100 0
M  V30 14 H 76.162800 56.020500 42.848900 0
M  V30 15 R 73.864800 53.903200 42.293300 0
M  V30 END ATOM
M  V30 BEGIN BOND
M  V30 1 1 2 1
M  V30 2 2 3 2
M  V30 3 1 4 2
M  V30 4 1 5 4
M  V30 5 1 6 5
M  V30 6 1 7 1
M  V30 7 1 8 1
M  V30 8 1 9 1
M  V30 9 1 5 10 CFG=1
M  V30 10 1 11 6
M  V30 11 1 12 6
M  V30 12 1 13 6
M  V30 13 1 14 4
M  V30 14 1 15 5
M  V30 END BOND
M  V30 END CTAB
M  END
$$$$
R-group 251 (31443-1)
     RDKit          3D

  0  0  0  0  0  0  0  0  0  0999 V3000
M  V30 BEGIN CTAB
M  V30 COUNTS 18 18 0 0 1
M  V30 BEGIN ATOM
M  V30 1 C 72.873500 58.246600 40.276500 0
M  V30 2 C 73.557700 57.975400 41.603300 0
M  V30 3 C 74.071300 56.636900 41.744400 0
M  V30 4 C 73.672200 55.509500 41.132400 0
M  V30 5 C 74.092500 54.542400 42.054600 0
M  V30 6 N 74.973900 55.023700 42.915600 0
M  V30 7 N 75.072600 56.315800 42.623000 0
M  V30 8 C 76.043600 57.145900 43.314200 0
M  V30 9 H 72.471700 59.258900 40.271700 0
M  V30 10 H 73.561400 58.125500 39.436800 0
M  V30 11 H 72.042000 57.559700 40.124600 0
M  V30 12 H 72.906400 58.238300 42.439900 0
M  V30 13 H 74.472400 58.465200 41.724800 0
M  V30 14 H 72.953700 55.413900 40.332200 0
M  V30 15 H 75.559100 58.030300 43.724200 0
M  V30 16 H 76.474200 56.570100 44.124800 0
M  V30 17 H 76.855800 57.449300 42.638300 0
M  V30 18 R 73.658200 53.124800 42.087700 0
M  V30 END ATOM
M  V30 BEGIN BOND
M  V30 1 1 2 1
M  V30 2 1 3 2
M  V30 3 2 4 3
M  V30 4 1 5 4
M  V30 5 2 6 5
M  V30 6 1 7 3
M  V30 7 1 7 6
M  V30 8 1 8 7
M  V30 9 1 9 1
M  V30 10 1 10 1
M  V30 11 1 11 1
M  V30 12 1 12 2
M  V30 13 1 13 2
M  V30 14 1 14 4
M  V30 15 1 15 8
M  V30 16 1 16 8
M  V30 17 1 17 8
M  V30 18 1 18 5
M  V30 END BOND
M  V30 END CTAB
M  END
$$$$
R-group 252 (2577-1)
     RDKit          3D

  0  0  0  0  0  0  0  0  0  0999 V3000
M  V30 BEGIN CTAB
M  V30 COUNTS 16 15 0 0 1
M  V30 BEGIN ATOM
M  V30 1 C 73.608700 54.742200 42.304500 0
M  V30 2 C 74.924400 55.497100 42.243800 0
M  V30 3 N 74.522700 56.851800 42.524900 0
M  V30 4 C 74.434300 57.654100 41.332700 0
M  V30 5 C 73.502100 57.212700 40.200800 0
M  V30 6 F 72.215900 57.282100 40.524200 0
M  V30 7 F 73.699100 58.060600 39.204100 0
M  V30 8 H 72.872900 55.257100 41.709500 0
M  V30 9 H 73.268900 54.790200 43.324700 0
M  V30 10 H 75.596900 55.159100 43.030300 0
M  V30 11 H 75.452900 55.396000 41.293500 0
M  V30 12 H 75.186100 57.284900 43.152900 0
M  V30 13 H 74.072500 58.611600 41.716600 0
M  V30 14 H 75.459500 57.668100 40.951000 0
M  V30 15 H 73.724500 56.220800 39.813900 0
M  V30 16 R 73.645300 53.310500 41.821700 0
M  V30 END ATOM
M  V30 BEGIN BOND
M  V30 1 1 2 1
M  V30 2 1 3 2
M  V30 3 1 4 3
M  V30 4 1 5 4
M  V30 5 1 6 5
M  V30 6 1 7 5
M  V30 7 1 8 1
M  V30 8 1 9 1
M  V30 9 1 10 2
M  V30 10 1 11 2
M  V30 11 1 12 3
M  V30 12 1 13 4
M  V30 13 1 14 4
M  V30 14 1 15 5
M  V30 15 1 16 1
M  V30 END BOND
M  V30 END CTAB
M  END
$$$$
R-group 253 (12908-1)
     RDKit          3D

  0  0  0  0  0  0  0  0  0  0999 V3000
M  V30 BEGIN CTAB
M  V30 COUNTS 15 14 0 0 1
M  V30 BEGIN ATOM
M  V30 1 C 76.340500 55.697800 44.124600 0
M  V30 2 O 76.017900 56.840300 43.324700 0
M  V30 3 C 76.229600 56.783700 41.925800 0
M  V30 4 C 75.664600 55.536300 41.249300 0
M  V30 5 S 73.877800 55.420400 41.524100 0
M  V30 6 O 73.272300 55.937600 40.286900 0
M  V30 7 O 73.573900 56.068800 42.806300 0
M  V30 8 H 75.672400 55.657900 44.958000 0
M  V30 9 H 76.072200 54.755500 43.687500 0
M  V30 10 H 77.357700 55.658000 44.518300 0
M  V30 11 H 77.276100 56.889700 41.723900 0
M  V30 12 H 75.760700 57.658000 41.480600 0
M  V30 13 H 76.072200 54.632100 41.639800 0
M  V30 14 H 75.858800 55.568000 40.179700 0
M  V30 15 R 73.468700 53.594900 41.690000 0
M  V30 END ATOM
M  V30 BEGIN BOND
M  V30 1 1 2 1
M  V30 2 1 3 2
M  V30 3 1 4 3
M  V30 4 1 5 4
M  V30 5 2 6 5
M  V30 6 2 7 5
M  V30 7 1 8 1
M  V30 8 1 9 1
M  V30 9 1 10 1
M  V30 10 1 11 3
M  V30 11 1 12 3
M  V30 12 1 13 4
M  V30 13 1 14 4
M  V30 14 1 15 5
M  V30 END BOND
M  V30 END CTAB
M  END
$$$$
R-group 254 (39487-4)
     RDKit          3D

  0  0  0  0  0  0  0  0  0  0999 V3000
M  V30 BEGIN CTAB
M  V30 COUNTS 17 16 0 0 1
M  V30 BEGIN ATOM
M  V30 1 C 76.105800 57.654100 40.313300 0
M  V30 2 C 74.741700 57.216400 39.724700 0
M  V30 3 C 73.602400 56.918400 40.738300 0 CFG=2
M  V30 4 C 72.984700 58.234800 41.235800 0
M  V30 5 S 74.072300 55.876500 42.231000 0
M  V30 6 O 73.272300 56.458000 43.322700 0
M  V30 7 O 75.528300 55.884500 42.390700 0
M  V30 8 H 76.587500 58.430300 39.723300 0
M  V30 9 H 76.017700 58.058000 41.319300 0
M  V30 10 H 76.796600 56.812900 40.367500 0
M  V30 11 H 74.872300 56.371500 39.058000 0
M  V30 12 H 74.395600 57.986700 39.031900 0
M  V30 13 H 72.789300 56.434100 40.212400 0
M  V30 14 H 72.710900 58.858100 40.393800 0
M  V30 15 H 72.076300 58.078900 41.813600 0
M  V30 16 H 73.672200 58.792100 41.868700 0
M  V30 17 R 73.541700 54.061300 41.909800 0
M  V30 END ATOM
M  V30 BEGIN BOND
M  V30 1 1 2 1
M  V30 2 1 3 2
M  V30 3 1 4 3
M  V30 4 1 5 3
M  V30 5 2 6 5
M  V30 6 2 7 5
M  V30 7 1 8 1
M  V30 8 1 9 1
M  V30 9 1 10 1
M  V30 10 1 11 2
M  V30 11 1 12 2
M  V30 12 1 3 13 CFG=3
M  V30 13 1 14 4
M  V30 14 1 15 4
M  V30 15 1 16 4
M  V30 16 1 17 5
M  V30 END BOND
M  V30 END CTAB
M  END
$$$$
R-group 255 (39826-2)
     RDKit          3D

  0  0  0  0  0  0  0  0  0  0999 V3000
M  V30 BEGIN CTAB
M  V30 COUNTS 19 18 0 0 1
M  V30 BEGIN ATOM
M  V30 1 O 73.156500 54.312500 42.520000 0
M  V30 2 C 74.224100 55.187400 42.833200 0
M  V30 3 C 74.010600 56.482500 42.084400 0 CFG=1
M  V30 4 O 73.273200 57.343800 42.924000 0
M  V30 5 C 75.343000 57.151900 41.763900 0
M  V30 6 C 76.167900 56.558700 40.624700 0
M  V30 7 C 76.170900 57.440800 43.025900 0
M  V30 8 H 75.194600 54.783700 42.551500 0
M  V30 9 H 74.267900 55.337500 43.912100 0
M  V30 10 H 73.442900 56.326200 41.164900 0
M  V30 11 H 74.996800 58.042500 41.325000 0
M  V30 12 H 76.671900 55.657600 40.937200 0
M  V30 13 H 76.942700 57.260500 40.315700 0
M  V30 14 H 75.546700 56.348700 39.753800 0
M  V30 15 H 76.472400 56.526900 43.532500 0
M  V30 16 H 77.042700 58.055600 42.806700 0
M  V30 17 H 75.587100 58.022100 43.732400 0
M  V30 18 H 72.760400 56.797700 43.509500 0
M  V30 19 R 73.485500 53.178800 41.758900 0
M  V30 END ATOM
M  V30 BEGIN BOND
M  V30 1 1 2 1
M  V30 2 1 3 2
M  V30 3 1 4 3
M  V30 4 1 5 3
M  V30 5 1 6 5
M  V30 6 1 7 5
M  V30 7 1 8 2
M  V30 8 1 9 2
M  V30 9 1 3 10 CFG=3
M  V30 10 1 11 5
M  V30 11 1 12 6
M  V30 12 1 13 6
M  V30 13 1 14 6
M  V30 14 1 15 7
M  V30 15 1 16 7
M  V30 16 1 17 7
M  V30 17 1 18 4
M  V30 18 1 19 1
M  V30 END BOND
M  V30 END CTAB
M  END
$$$$
R-group 256 (16930-1)
     RDKit          3D

  0  0  0  0  0  0  0  0  0  0999 V3000
M  V30 BEGIN CTAB
M  V30 COUNTS 21 20 0 0 1
M  V30 BEGIN ATOM
M  V30 1 C 72.777800 54.077800 42.405200 0
M  V30 2 O 73.854900 55.003400 42.525700 0
M  V30 3 C 73.449400 56.342400 42.641800 0
M  V30 4 C 74.578300 57.333900 42.457300 0
M  V30 5 C 75.308500 57.227000 41.087800 0
M  V30 6 C 74.355300 57.257400 39.868700 0
M  V30 7 C 76.244500 56.037800 41.028200 0
M  V30 8 H 72.378100 53.651300 43.323300 0
M  V30 9 H 71.938700 54.458000 41.828500 0
M  V30 10 H 72.873300 56.523700 43.552500 0
M  V30 11 H 72.872300 56.567500 41.775300 0
M  V30 12 H 75.293500 57.276500 43.281100 0
M  V30 13 H 74.073100 58.305600 42.525100 0
M  V30 14 H 76.006100 58.058100 41.006500 0
M  V30 15 H 73.764600 56.349600 39.789200 0
M  V30 16 H 74.872000 57.360900 38.925700 0
M  V30 17 H 73.658300 58.081900 39.925400 0
M  V30 18 H 75.722200 55.088400 41.021400 0
M  V30 19 H 76.868400 56.071500 40.134600 0
M  V30 20 H 76.872800 56.059300 41.913200 0
M  V30 21 R 73.369900 52.904600 41.678600 0
M  V30 END ATOM
M  V30 BEGIN BOND
M  V30 1 1 2 1
M  V30 2 1 3 2
M  V30 3 1 4 3
M  V30 4 1 5 4
M  V30 5 1 6 5
M  V30 6 1 7 5
M  V30 7 1 8 1
M  V30 8 1 9 1
M  V30 9 1 10 3
M  V30 10 1 11 3
M  V30 11 1 12 4
M  V30 12 1 13 4
M  V30 13 1 14 5
M  V30 14 1 15 6
M  V30 15 1 16 6
M  V30 16 1 17 6
M  V30 17 1 18 7
M  V30 18 1 19 7
M  V30 19 1 20 7
M  V30 20 1 21 1
M  V30 END BOND
M  V30 END CTAB
M  END
$$$$
R-group 257 (18909-2)
     RDKit          3D

  0  0  0  0  0  0  0  0  0  0999 V3000
M  V30 BEGIN CTAB
M  V30 COUNTS 22 21 0 0 1
M  V30 BEGIN ATOM
M  V30 1 O 73.241000 54.154400 41.733400 0
M  V30 2 C 74.400400 54.836200 41.304500 0
M  V30 3 C 73.850900 56.206700 41.011300 0 CFG=2
M  V30 4 C 74.678500 56.865500 39.896200 0
M  V30 5 C 73.671800 57.011100 42.323400 0
M  V30 6 C 72.956300 58.307600 42.031200 0
M  V30 7 C 73.009600 56.281900 43.491900 0
M  V30 8 O 74.944500 57.256600 42.870200 0
M  V30 9 H 74.857900 54.418700 40.421300 0
M  V30 10 H 75.182300 54.848500 42.064100 0
M  V30 11 H 72.869800 56.065700 40.563100 0
M  V30 12 H 75.639500 57.242000 40.249800 0
M  V30 13 H 74.859300 56.163800 39.083800 0
M  V30 14 H 74.117900 57.670700 39.439400 0
M  V30 15 H 72.072900 58.168800 41.423000 0
M  V30 16 H 73.645800 58.858100 41.431400 0
M  V30 17 H 72.680200 58.857000 42.925700 0
M  V30 18 H 72.053600 55.815000 43.324300 0
M  V30 19 H 73.683300 55.467000 43.733500 0
M  V30 20 H 72.873800 56.912900 44.370300 0
M  V30 21 H 75.337100 56.429900 43.099800 0
M  V30 22 R 73.302400 52.766500 41.775000 0
M  V30 END ATOM
M  V30 BEGIN BOND
M  V30 1 1 2 1
M  V30 2 1 3 2
M  V30 3 1 4 3
M  V30 4 1 5 3
M  V30 5 1 6 5
M  V30 6 1 7 5
M  V30 7 1 8 5
M  V30 8 1 9 2
M  V30 9 1 10 2
M  V30 10 1 3 11 CFG=3
M  V30 11 1 12 4
M  V30 12 1 13 4
M  V30 13 1 14 4
M  V30 14 1 15 6
M  V30 15 1 16 6
M  V30 16 1 17 6
M  V30 17 1 18 7
M  V30 18 1 19 7
M  V30 19 1 20 7
M  V30 20 1 21 8
M  V30 21 1 22 1
M  V30 END BOND
M  V30 END CTAB
M  END
$$$$
R-group 258 (3514-1)
     RDKit          3D

  0  0  0  0  0  0  0  0  0  0999 V3000
M  V30 BEGIN CTAB
M  V30 COUNTS 15 15 0 0 1
M  V30 BEGIN ATOM
M  V30 1 N 74.428800 55.259300 42.491600 0
M  V30 2 C 75.195200 55.481200 43.710400 0
M  V30 3 C 73.353500 56.243600 42.373400 0
M  V30 4 C 73.468200 57.710100 42.786300 0
M  V30 5 O 72.872200 58.160900 41.551900 0
M  V30 6 C 73.108000 56.858700 40.981400 0
M  V30 7 H 76.072200 54.847200 43.742700 0
M  V30 8 H 75.594500 56.493800 43.725100 0
M  V30 9 H 74.601500 55.258000 44.599300 0
M  V30 10 H 72.472800 55.887000 42.924700 0
M  V30 11 H 72.871800 57.967700 43.662600 0
M  V30 12 H 74.482900 58.058000 42.893500 0
M  V30 13 H 74.000200 56.860700 40.352800 0
M  V30 14 H 72.261100 56.480900 40.413400 0
M  V30 15 R 73.904100 53.874700 42.319000 0
M  V30 END ATOM
M  V30 BEGIN BOND
M  V30 1 1 2 1
M  V30 2 1 3 1
M  V30 3 1 4 3
M  V30 4 1 5 4
M  V30 5 1 6 3
M  V30 6 1 6 5
M  V30 7 1 7 2
M  V30 8 1 8 2
M  V30 9 1 9 2
M  V30 10 1 10 3
M  V30 11 1 11 4
M  V30 12 1 12 4
M  V30 13 1 13 6
M  V30 14 1 14 6
M  V30 15 1 15 1
M  V30 END BOND
M  V30 END CTAB
M  END
$$$$
R-group 259 (15123-2)
     RDKit          3D

  0  0  0  0  0  0  0  0  0  0999 V3000
M  V30 BEGIN CTAB
M  V30 COUNTS 16 15 0 0 1
M  V30 BEGIN ATOM
M  V30 1 C 74.743200 55.014400 42.418600 0 CFG=2
M  V30 2 O 75.271300 55.142800 43.718000 0
M  V30 3 C 73.933700 56.309300 42.220800 0
M  V30 4 C 72.856200 56.480500 43.317300 0
M  V30 5 C 74.759100 57.580300 42.294600 0
M  V30 6 O 73.497300 56.377200 40.876900 0
M  V30 7 H 75.600700 55.012000 41.745400 0
M  V30 8 H 73.250300 56.422700 44.317700 0
M  V30 9 H 72.059700 55.743300 43.324700 0
M  V30 10 H 72.471900 57.492000 43.263400 0
M  V30 11 H 75.220500 57.673200 43.280600 0
M  V30 12 H 75.555100 57.609400 41.547800 0
M  V30 13 H 74.072200 58.428100 42.134800 0
M  V30 14 H 74.539700 55.197900 44.317100 0
M  V30 15 H 74.255800 56.394800 40.313600 0
M  V30 16 R 73.960500 53.655400 42.295500 0
M  V30 END ATOM
M  V30 BEGIN BOND
M  V30 1 1 2 1
M  V30 2 1 3 1
M  V30 3 1 4 3
M  V30 4 1 5 3
M  V30 5 1 6 3
M  V30 6 1 1 7 CFG=3
M  V30 7 1 8 4
M  V30 8 1 9 4
M  V30 9 1 10 4
M  V30 10 1 11 5
M  V30 11 1 12 5
M  V30 12 1 13 5
M  V30 13 1 14 2
M  V30 14 1 15 6
M  V30 15 1 16 1
M  V30 END BOND
M  V30 END CTAB
M  END
$$$$
R-group 260 (861-1)
     RDKit          3D

  0  0  0  0  0  0  0  0  0  0999 V3000
M  V30 BEGIN CTAB
M  V30 COUNTS 14 13 0 0 1
M  V30 BEGIN ATOM
M  V30 1 S 74.230200 55.629100 41.530500 0
M  V30 2 O 73.671300 56.554800 42.522000 0
M  V30 3 O 75.670600 55.657100 41.317900 0
M  V30 4 N 73.587700 56.003100 39.961300 0
M  V30 5 C 72.341800 56.700700 39.650500 0
M  V30 6 C 71.174400 55.745700 39.332900 0
M  V30 7 O 70.048100 56.458000 38.859400 0
M  V30 8 H 72.102700 57.416800 40.436000 0
M  V30 9 H 72.559700 57.258000 38.743100 0
M  V30 10 H 71.457000 55.028200 38.556500 0
M  V30 11 H 70.875300 55.182200 40.213100 0
M  V30 12 H 74.273800 55.975200 39.209700 0
M  V30 13 H 69.744100 57.040100 39.538900 0
M  V30 14 R 73.697100 53.854500 41.884900 0
M  V30 END ATOM
M  V30 BEGIN BOND
M  V30 1 2 2 1
M  V30 2 2 3 1
M  V30 3 1 4 1
M  V30 4 1 5 4
M  V30 5 1 6 5
M  V30 6 1 7 6
M  V30 7 1 8 5
M  V30 8 1 9 5
M  V30 9 1 10 6
M  V30 10 1 11 6
M  V30 11 1 12 4
M  V30 12 1 13 7
M  V30 13 1 14 1
M  V30 END BOND
M  V30 END CTAB
M  END
$$$$
R-group 261 (7508-4)
     RDKit          3D

  0  0  0  0  0  0  0  0  0  0999 V3000
M  V30 BEGIN CTAB
M  V30 COUNTS 14 14 0 0 1
M  V30 BEGIN ATOM
M  V30 1 N 73.260700 54.292500 42.130500 0
M  V30 2 C 74.219600 55.212800 42.094000 0
M  V30 3 O 75.269500 55.098800 41.467400 0
M  V30 4 C 73.862100 56.419600 42.818400 0 CFG=1
M  V30 5 C 74.888300 57.516800 42.976200 0
M  V30 6 C 73.905300 57.508600 41.828800 0 CFG=2
M  V30 7 C 72.872400 58.458000 41.767800 0
M  V30 8 N 72.071900 59.258100 41.724600 0
M  V30 9 H 73.016000 56.393600 43.507200 0
M  V30 10 H 75.928600 57.277700 42.751700 0
M  V30 11 H 74.750600 58.298700 43.725500 0
M  V30 12 H 74.302900 57.342300 40.826300 0
M  V30 13 H 72.455500 54.492100 42.708400 0
M  V30 14 R 73.399700 52.942100 41.684100 0
M  V30 END ATOM
M  V30 BEGIN BOND
M  V30 1 1 2 1
M  V30 2 2 3 2
M  V30 3 1 4 2
M  V30 4 1 5 4
M  V30 5 1 6 4
M  V30 6 1 6 5
M  V30 7 1 7 6
M  V30 8 3 8 7
M  V30 9 1 4 9 CFG=1
M  V30 10 1 10 5
M  V30 11 1 11 5
M  V30 12 1 6 12 CFG=3
M  V30 13 1 13 1
M  V30 14 1 14 1
M  V30 END BOND
M  V30 END CTAB
M  END
$$$$
R-group 262 (37771-4)
     RDKit          3D

  0  0  0  0  0  0  0  0  0  0999 V3000
M  V30 BEGIN CTAB
M  V30 COUNTS 18 17 0 0 1
M  V30 BEGIN ATOM
M  V30 1 C 76.072300 56.933000 43.413000 0
M  V30 2 C 75.290400 55.615300 43.425600 0
M  V30 3 C 74.434600 55.322100 42.173500 0 CFG=2
M  V30 4 C 73.272400 56.350600 42.063100 0 CFG=2
M  V30 5 C 72.872200 56.655100 40.593600 0
M  V30 6 O 73.538800 57.657400 42.510500 0
M  V30 7 H 76.872200 56.857900 44.124700 0
M  V30 8 H 76.509300 57.130600 42.434000 0
M  V30 9 H 75.527900 57.818100 43.724800 0
M  V30 10 H 74.669600 55.469100 44.298600 0
M  V30 11 H 76.071700 54.880500 43.554900 0
M  V30 12 H 75.110400 55.467500 41.332700 0
M  V30 13 H 72.520800 56.013100 42.794200 0
M  V30 14 H 72.259700 55.893300 40.124600 0
M  V30 15 H 72.273200 57.564900 40.523100 0
M  V30 16 H 73.750200 56.815200 39.966200 0
M  V30 17 H 73.900200 57.597900 43.381900 0
M  V30 18 R 73.885400 53.832500 42.148000 0
M  V30 END ATOM
M  V30 BEGIN BOND
M  V30 1 1 2 1
M  V30 2 1 3 2
M  V30 3 1 4 3
M  V30 4 1 5 4
M  V30 5 1 6 4
M  V30 6 1 7 1
M  V30 7 1 8 1
M  V30 8 1 9 1
M  V30 9 1 10 2
M  V30 10 1 11 2
M  V30 11 1 3 12 CFG=3
M  V30 12 1 4 13 CFG=1
M  V30 13 1 14 5
M  V30 14 1 15 5
M  V30 15 1 16 5
M  V30 16 1 17 6
M  V30 17 1 18 3
M  V30 END BOND
M  V30 END CTAB
M  END
$$$$
R-group 263 (11936-3)
     RDKit          3D

  0  0  0  0  0  0  0  0  0  0999 V3000
M  V30 BEGIN CTAB
M  V30 COUNTS 17 18 0 0 1
M  V30 BEGIN ATOM
M  V30 1 C 74.031300 54.817700 42.405000 0 CFG=2
M  V30 2 C 72.872200 55.723200 42.892700 0
M  V30 3 C 72.872400 56.884900 41.847000 0 CFG=1
M  V30 4 C 74.072600 57.607000 42.127900 0
M  V30 5 C 75.120400 56.858200 41.755600 0
M  V30 6 C 74.566000 55.595900 41.185700 0 CFG=2
M  V30 7 C 73.288600 56.180200 40.555700 0
M  V30 8 H 74.796300 54.877400 43.181700 0
M  V30 9 H 71.950500 55.148300 42.924700 0
M  V30 10 H 73.047500 56.092500 43.902000 0
M  V30 11 H 72.096400 57.658000 41.784900 0
M  V30 12 H 74.072200 58.596700 42.529200 0
M  V30 13 H 76.170800 57.102800 41.819700 0
M  V30 14 H 75.299900 55.123900 40.541800 0
M  V30 15 H 72.545100 55.475400 40.201500 0
M  V30 16 H 73.499900 56.876600 39.740200 0
M  V30 17 R 73.654400 53.324800 42.207800 0
M  V30 END ATOM
M  V30 BEGIN BOND
M  V30 1 1 2 1
M  V30 2 1 3 2
M  V30 3 1 4 3
M  V30 4 2 5 4
M  V30 5 1 6 1
M  V30 6 1 6 5
M  V30 7 1 7 3
M  V30 8 1 7 6
M  V30 9 1 1 8 CFG=1
M  V30 10 1 9 2
M  V30 11 1 10 2
M  V30 12 1 3 11 CFG=3
M  V30 13 1 12 4
M  V30 14 1 13 5
M  V30 15 1 6 14 CFG=3
M  V30 16 1 15 7
M  V30 17 1 16 7
M  V30 18 1 17 1
M  V30 END BOND
M  V30 END CTAB
M  END
$$$$
R-group 264 (2080-1)
     RDKit          3D

  0  0  0  0  0  0  0  0  0  0999 V3000
M  V30 BEGIN CTAB
M  V30 COUNTS 21 21 0 0 1
M  V30 BEGIN ATOM
M  V30 1 C 74.112600 54.687500 42.552700 0 CFG=1
M  V30 2 C 75.206700 55.170000 41.582000 0
M  V30 3 C 75.559200 56.640300 41.712300 0
M  V30 4 C 74.269800 57.429600 41.519900 0 CFG=1
M  V30 5 C 73.693800 57.383300 40.087900 0
M  V30 6 C 73.272100 57.025300 42.590600 0
M  V30 7 C 72.882300 55.536900 42.483300 0
M  V30 8 H 74.484900 54.818000 43.569100 0
M  V30 9 H 76.071800 54.555100 41.724500 0
M  V30 10 H 74.892800 55.048100 40.556200 0
M  V30 11 H 75.991600 56.842700 42.693500 0
M  V30 12 H 76.305000 56.925400 40.967300 0
M  V30 13 H 74.472100 58.457800 41.724700 0
M  V30 14 H 73.305000 56.409600 39.799600 0
M  V30 15 H 72.871400 58.086000 40.008500 0
M  V30 16 H 74.444800 57.658200 39.343800 0
M  V30 17 H 72.467700 57.723800 42.497900 0
M  V30 18 H 73.683400 57.212000 43.582200 0
M  V30 19 H 72.519900 55.257200 41.490500 0
M  V30 20 H 72.119900 55.260000 43.216300 0
M  V30 21 R 73.721400 53.223300 42.290100 0
M  V30 END ATOM
M  V30 BEGIN BOND
M  V30 1 1 2 1
M  V30 2 1 3 2
M  V30 3 1 4 3
M  V30 4 1 5 4
M  V30 5 1 6 4
M  V30 6 1 7 1
M  V30 7 1 7 6
M  V30 8 1 1 8 CFG=1
M  V30 9 1 9 2
M  V30 10 1 10 2
M  V30 11 1 11 3
M  V30 12 1 12 3
M  V30 13 1 4 13 CFG=1
M  V30 14 1 14 5
M  V30 15 1 15 5
M  V30 16 1 16 5
M  V30 17 1 17 6
M  V30 18 1 18 6
M  V30 19 1 19 7
M  V30 20 1 20 7
M  V30 21 1 21 1
M  V30 END BOND
M  V30 END CTAB
M  END
$$$$
R-group 265 (17919-1)
     RDKit          3D

  0  0  0  0  0  0  0  0  0  0999 V3000
M  V30 BEGIN CTAB
M  V30 COUNTS 13 12 0 0 1
M  V30 BEGIN ATOM
M  V30 1 N 74.440700 55.082700 41.832400 0
M  V30 2 C 73.442000 56.140200 41.794000 0
M  V30 3 C 72.872000 56.407100 40.377600 0
M  V30 4 F 73.826800 56.366000 39.446300 0
M  V30 5 C 73.957400 57.456300 42.358900 0
M  V30 6 F 72.872800 58.217600 42.524400 0
M  V30 7 H 74.972400 55.212200 42.680800 0
M  V30 8 H 72.707500 55.824200 42.528300 0
M  V30 9 H 72.072000 55.728200 40.098800 0
M  V30 10 H 72.428200 57.399700 40.302300 0
M  V30 11 H 74.444800 57.347900 43.324600 0
M  V30 12 H 74.626100 57.971500 41.672800 0
M  V30 13 R 73.840900 53.742500 41.895200 0
M  V30 END ATOM
M  V30 BEGIN BOND
M  V30 1 1 2 1
M  V30 2 1 3 2
M  V30 3 1 4 3
M  V30 4 1 5 2
M  V30 5 1 6 5
M  V30 6 1 7 1
M  V30 7 1 8 2
M  V30 8 1 9 3
M  V30 9 1 10 3
M  V30 10 1 11 5
M  V30 11 1 12 5
M  V30 12 1 13 1
M  V30 END BOND
M  V30 END CTAB
M  END
$$$$
R-group 266 (1207-1)
     RDKit          3D

  0  0  0  0  0  0  0  0  0  0999 V3000
M  V30 BEGIN CTAB
M  V30 COUNTS 15 14 0 0 1
M  V30 BEGIN ATOM
M  V30 1 C 73.519100 55.070600 42.673300 0
M  V30 2 C 74.613600 55.927100 42.056300 0
M  V30 3 O 75.672000 56.058300 42.668700 0
M  V30 4 N 74.424100 56.456500 40.838900 0
M  V30 5 C 75.575800 56.660300 39.985600 0
M  V30 6 C 73.135100 56.873500 40.287700 0
M  V30 7 H 72.524800 55.444100 42.529000 0
M  V30 8 H 73.674700 55.258000 43.724600 0
M  V30 9 H 75.984800 57.658100 40.096800 0
M  V30 10 H 76.382000 55.957800 40.202300 0
M  V30 11 H 75.272200 56.477000 38.955300 0
M  V30 12 H 72.635400 56.057000 39.773000 0
M  V30 13 H 72.472700 57.268900 41.057000 0
M  V30 14 H 73.275400 57.670300 39.556800 0
M  V30 15 R 73.514300 53.555000 42.316500 0
M  V30 END ATOM
M  V30 BEGIN BOND
M  V30 1 1 2 1
M  V30 2 2 3 2
M  V30 3 1 4 2
M  V30 4 1 5 4
M  V30 5 1 6 4
M  V30 6 1 7 1
M  V30 7 1 8 1
M  V30 8 1 9 5
M  V30 9 1 10 5
M  V30 10 1 11 5
M  V30 11 1 12 6
M  V30 12 1 13 6
M  V30 13 1 14 6
M  V30 14 1 15 1
M  V30 END BOND
M  V30 END CTAB
M  END
$$$$
R-group 267 (17542-1)
     RDKit          3D

  0  0  0  0  0  0  0  0  0  0999 V3000
M  V30 BEGIN CTAB
M  V30 COUNTS 16 15 0 0 1
M  V30 BEGIN ATOM
M  V30 1 O 73.797300 54.794000 42.153800 0
M  V30 2 C 75.131600 55.276500 42.043600 0
M  V30 3 C 75.113200 56.698200 41.484000 0 CFG=1
M  V30 4 C 74.609100 56.712000 40.023500 0
M  V30 5 O 73.261200 56.335700 39.925800 0
M  V30 6 C 74.391800 57.657900 42.442500 0
M  V30 7 F 73.272400 57.161700 42.924800 0
M  V30 8 H 75.686200 54.654300 41.361800 0
M  V30 9 H 75.629700 55.240800 43.013000 0
M  V30 10 H 76.149200 57.036200 41.437000 0
M  V30 11 H 75.214500 56.057300 39.414100 0
M  V30 12 H 74.725000 57.658000 39.529700 0
M  V30 13 H 74.991300 57.897400 43.324700 0
M  V30 14 H 74.072200 58.563700 41.935700 0
M  V30 15 H 73.101300 55.705300 40.617400 0
M  V30 16 R 73.572200 53.398000 42.051800 0
M  V30 END ATOM
M  V30 BEGIN BOND
M  V30 1 1 2 1
M  V30 2 1 3 2
M  V30 3 1 4 3
M  V30 4 1 5 4
M  V30 5 1 6 3
M  V30 6 1 7 6
M  V30 7 1 8 2
M  V30 8 1 9 2
M  V30 9 1 3 10 CFG=3
M  V30 10 1 11 4
M  V30 11 1 12 4
M  V30 12 1 13 6
M  V30 13 1 14 6
M  V30 14 1 15 5
M  V30 15 1 16 1
M  V30 END BOND
M  V30 END CTAB
M  END
$$$$
R-group 268 (39286-2)
     RDKit          3D

  0  0  0  0  0  0  0  0  0  0999 V3000
M  V30 BEGIN CTAB
M  V30 COUNTS 18 17 0 0 1
M  V30 BEGIN ATOM
M  V30 1 C 72.791500 58.196000 41.361200 0
M  V30 2 C 72.908300 57.937300 42.873400 0
M  V30 3 C 72.970100 56.476800 43.402700 0
M  V30 4 O 74.130900 55.808800 42.924800 0
M  V30 5 C 73.996500 55.219800 41.650000 0 CFG=1
M  V30 6 C 75.264600 55.616900 40.887900 0
M  V30 7 H 72.472800 59.223500 41.182400 0
M  V30 8 H 73.744500 58.051500 40.865000 0
M  V30 9 H 72.072600 57.564300 40.850600 0
M  V30 10 H 72.072100 58.456100 43.323600 0
M  V30 11 H 73.807700 58.442800 43.218300 0
M  V30 12 H 72.072100 55.876500 43.324600 0
M  V30 13 H 73.021500 56.506200 44.484400 0
M  V30 14 H 73.165500 55.670200 41.116100 0
M  V30 15 H 75.092800 55.640700 39.813800 0
M  V30 16 H 75.598500 56.616500 41.166100 0
M  V30 17 H 76.072100 54.930700 41.104900 0
M  V30 18 R 73.678600 53.703700 41.770100 0
M  V30 END ATOM
M  V30 BEGIN BOND
M  V30 1 1 2 1
M  V30 2 1 3 2
M  V30 3 1 4 3
M  V30 4 1 5 4
M  V30 5 1 6 5
M  V30 6 1 7 1
M  V30 7 1 8 1
M  V30 8 1 9 1
M  V30 9 1 10 2
M  V30 10 1 11 2
M  V30 11 1 12 3
M  V30 12 1 13 3
M  V30 13 1 5 14 CFG=3
M  V30 14 1 15 6
M  V30 15 1 16 6
M  V30 16 1 17 6
M  V30 17 1 18 5
M  V30 END BOND
M  V30 END CTAB
M  END
$$$$
R-group 269 (22930-2)
     RDKit          3D

  0  0  0  0  0  0  0  0  0  0999 V3000
M  V30 BEGIN CTAB
M  V30 COUNTS 20 20 0 0 1
M  V30 BEGIN ATOM
M  V30 1 O 73.272800 54.636400 41.927200 0
M  V30 2 C 74.380900 55.525300 41.893500 0 CFG=1
M  V30 3 C 74.390700 56.512500 40.706500 0
M  V30 4 C 73.155500 57.422900 40.598400 0
M  V30 5 C 73.084100 58.483000 41.705400 0
M  V30 6 C 72.684300 58.055400 43.109900 0
M  V30 7 O 72.874000 56.677900 43.325500 0
M  V30 8 C 74.225700 56.233700 43.226100 0
M  V30 9 H 75.334100 54.999300 41.894300 0
M  V30 10 H 75.278900 57.138200 40.791900 0
M  V30 11 H 74.526400 55.996000 39.762600 0
M  V30 12 H 73.256600 57.951800 39.652000 0
M  V30 13 H 72.227300 56.858800 40.524200 0
M  V30 14 H 74.072100 58.857800 41.814400 0
M  V30 15 H 72.461800 59.319300 41.392300 0
M  V30 16 H 73.272600 58.458000 43.907700 0
M  V30 17 H 71.695300 58.458000 43.320100 0
M  V30 18 H 74.407900 55.517700 44.025800 0
M  V30 19 H 74.961800 57.037200 43.321700 0
M  V30 20 R 73.448900 53.279100 41.601700 0
M  V30 END ATOM
M  V30 BEGIN BOND
M  V30 1 1 2 1
M  V30 2 1 3 2
M  V30 3 1 4 3
M  V30 4 1 5 4
M  V30 5 1 6 5
M  V30 6 1 7 6
M  V30 7 1 8 2
M  V30 8 1 8 7
M  V30 9 1 2 9 CFG=1
M  V30 10 1 10 3
M  V30 11 1 11 3
M  V30 12 1 12 4
M  V30 13 1 13 4
M  V30 14 1 14 5
M  V30 15 1 15 5
M  V30 16 1 16 6
M  V30 17 1 17 6
M  V30 18 1 18 8
M  V30 19 1 19 8
M  V30 20 1 20 1
M  V30 END BOND
M  V30 END CTAB
M  END
$$$$
R-group 270 (20047-1)
     RDKit          3D

  0  0  0  0  0  0  0  0  0  0999 V3000
M  V30 BEGIN CTAB
M  V30 COUNTS 17 17 0 0 1
M  V30 BEGIN ATOM
M  V30 1 N 74.507900 55.405300 42.483600 0
M  V30 2 C 75.555800 55.855700 41.578100 0
M  V30 3 C 75.825600 57.260300 42.081000 0
M  V30 4 C 74.478100 57.655200 42.670500 0
M  V30 5 C 73.527000 56.479300 42.540400 0 CFG=2
M  V30 6 C 72.671300 56.460400 43.807300 0
M  V30 7 F 72.271900 57.676200 44.183000 0
M  V30 8 F 71.612500 55.714400 43.761400 0
M  V30 9 H 76.475000 55.269000 41.612700 0
M  V30 10 H 75.175200 55.903400 40.558000 0
M  V30 11 H 76.537300 57.306200 42.899500 0
M  V30 12 H 76.203300 57.942500 41.325400 0
M  V30 13 H 74.608600 57.952100 43.721000 0
M  V30 14 H 74.065400 58.508400 42.163800 0
M  V30 15 H 73.019900 56.563700 41.577000 0
M  V30 16 H 73.272200 56.055600 44.597700 0
M  V30 17 R 73.942000 54.061300 42.288400 0
M  V30 END ATOM
M  V30 BEGIN BOND
M  V30 1 1 2 1
M  V30 2 1 3 2
M  V30 3 1 4 3
M  V30 4 1 5 1
M  V30 5 1 5 4
M  V30 6 1 6 5
M  V30 7 1 7 6
M  V30 8 1 8 6
M  V30 9 1 9 2
M  V30 10 1 10 2
M  V30 11 1 11 3
M  V30 12 1 12 3
M  V30 13 1 13 4
M  V30 14 1 14 4
M  V30 15 1 5 15 CFG=3
M  V30 16 1 16 6
M  V30 17 1 17 1
M  V30 END BOND
M  V30 END CTAB
M  END
$$$$
R-group 271 (3233-1)
     RDKit          3D

  0  0  0  0  0  0  0  0  0  0999 V3000
M  V30 BEGIN CTAB
M  V30 COUNTS 21 21 0 0 1
M  V30 BEGIN ATOM
M  V30 1 C 73.237500 54.537500 42.223100 0
M  V30 2 N 74.395400 55.276000 42.777700 0
M  V30 3 C 75.579100 55.217100 41.934900 0
M  V30 4 C 75.408700 55.938700 40.618900 0
M  V30 5 O 75.106500 57.258000 40.927600 0
M  V30 6 C 73.923100 57.454000 41.695300 0
M  V30 7 C 74.085100 56.686900 43.019400 0 CFG=1
M  V30 8 C 72.872200 56.919100 43.937600 0
M  V30 9 H 72.871900 55.068300 41.351000 0
M  V30 10 H 72.408400 54.534600 42.924600 0
M  V30 11 H 76.416400 55.659000 42.464900 0
M  V30 12 H 75.872500 54.206900 41.725400 0
M  V30 13 H 76.355500 55.927600 40.120700 0
M  V30 14 H 74.654100 55.533700 39.955200 0
M  V30 15 H 73.789100 58.513200 41.903200 0
M  V30 16 H 73.051900 57.145200 41.119100 0
M  V30 17 H 74.949300 57.135600 43.499600 0
M  V30 18 H 72.619900 57.971800 44.036700 0
M  V30 19 H 72.072200 56.401700 43.479900 0
M  V30 20 H 72.872300 56.457800 44.924300 0
M  V30 21 R 73.397500 53.057500 41.861000 0
M  V30 END ATOM
M  V30 BEGIN BOND
M  V30 1 1 2 1
M  V30 2 1 3 2
M  V30 3 1 4 3
M  V30 4 1 5 4
M  V30 5 1 6 5
M  V30 6 1 7 2
M  V30 7 1 7 6
M  V30 8 1 8 7
M  V30 9 1 9 1
M  V30 10 1 10 1
M  V30 11 1 11 3
M  V30 12 1 12 3
M  V30 13 1 13 4
M  V30 14 1 14 4
M  V30 15 1 15 6
M  V30 16 1 16 6
M  V30 17 1 7 17 CFG=1
M  V30 18 1 18 8
M  V30 19 1 19 8
M  V30 20 1 20 8
M  V30 21 1 21 1
M  V30 END BOND
M  V30 END CTAB
M  END
$$$$
R-group 272 (32483-1)
     RDKit          3D

  0  0  0  0  0  0  0  0  0  0999 V3000
M  V30 BEGIN CTAB
M  V30 COUNTS 12 12 0 0 1
M  V30 BEGIN ATOM
M  V30 1 C 76.508900 57.005800 40.199500 0
M  V30 2 O 76.226600 57.245200 41.518000 0
M  V30 3 C 75.120500 56.664300 41.887800 0
M  V30 4 N 74.092400 57.202200 42.536300 0
M  V30 5 C 73.392100 56.107100 42.911100 0
M  V30 6 C 73.828200 55.016200 42.227400 0
M  V30 7 O 75.005300 55.353300 41.645400 0
M  V30 8 H 77.259900 57.727000 39.865100 0
M  V30 9 H 76.892300 55.978600 40.141500 0
M  V30 10 H 75.592800 57.070700 39.582300 0
M  V30 11 H 72.467900 56.173500 43.540200 0
M  V30 12 R 73.448300 53.592000 42.066300 0
M  V30 END ATOM
M  V30 BEGIN BOND
M  V30 1 1 2 1
M  V30 2 1 3 2
M  V30 3 2 4 3
M  V30 4 1 5 4
M  V30 5 2 6 5
M  V30 6 1 7 3
M  V30 7 1 7 6
M  V30 8 1 8 1
M  V30 9 1 9 1
M  V30 10 1 10 1
M  V30 11 1 11 5
M  V30 12 1 12 6
M  V30 END BOND
M  V30 END CTAB
M  END
$$$$
R-group 273 (7602-1)
     RDKit          3D

  0  0  0  0  0  0  0  0  0  0999 V3000
M  V30 BEGIN CTAB
M  V30 COUNTS 13 13 0 0 1
M  V30 BEGIN ATOM
M  V30 1 O 72.873400 54.095800 42.118000 0
M  V30 2 C 73.695700 55.182700 42.023100 0
M  V30 3 C 73.656700 56.258800 42.924900 0
M  V30 4 C 74.616100 57.092300 42.497100 0
M  V30 5 N 75.203000 56.521700 41.388500 0
M  V30 6 C 76.257400 57.060800 40.554500 0
M  V30 7 N 74.645800 55.325200 41.099900 0
M  V30 8 H 72.992600 56.382000 43.766200 0
M  V30 9 H 74.873600 58.047400 42.927400 0
M  V30 10 H 76.900000 57.704300 41.156100 0
M  V30 11 H 76.863300 56.258600 40.135200 0
M  V30 12 H 75.817000 57.657100 39.742800 0
M  V30 13 R 73.330200 52.854700 41.657200 0
M  V30 END ATOM
M  V30 BEGIN BOND
M  V30 1 1 2 1
M  V30 2 1 3 2
M  V30 3 2 4 3
M  V30 4 1 5 4
M  V30 5 1 6 5
M  V30 6 2 7 2
M  V30 7 1 7 5
M  V30 8 1 8 3
M  V30 9 1 9 4
M  V30 10 1 10 6
M  V30 11 1 11 6
M  V30 12 1 12 6
M  V30 13 1 13 1
M  V30 END BOND
M  V30 END CTAB
M  END
$$$$
R-group 274 (39022-1)
     RDKit          3D

  0  0  0  0  0  0  0  0  0  0999 V3000
M  V30 BEGIN CTAB
M  V30 COUNTS 14 14 0 0 1
M  V30 BEGIN ATOM
M  V30 1 C 74.499300 55.030800 42.267000 0
M  V30 2 O 75.272200 55.338300 43.177800 0
M  V30 3 N 74.074500 56.084300 41.395600 0
M  V30 4 C 73.919800 56.094800 40.018900 0
M  V30 5 C 73.272200 57.257900 39.750000 0
M  V30 6 N 73.010000 57.950400 40.925400 0
M  V30 7 C 73.623800 57.257800 41.878600 0
M  V30 8 C 73.561300 57.654400 43.317700 0
M  V30 9 H 74.209700 55.324400 39.331800 0
M  V30 10 H 72.910100 57.628000 38.805100 0
M  V30 11 H 72.845700 58.458000 43.444100 0
M  V30 12 H 73.204900 56.823900 43.927900 0
M  V30 13 H 74.543400 57.987200 43.655400 0
M  V30 14 R 73.912400 53.599200 42.164800 0
M  V30 END ATOM
M  V30 BEGIN BOND
M  V30 1 2 2 1
M  V30 2 1 3 1
M  V30 3 1 4 3
M  V30 4 2 5 4
M  V30 5 1 6 5
M  V30 6 1 7 3
M  V30 7 2 7 6
M  V30 8 1 8 7
M  V30 9 1 9 4
M  V30 10 1 10 5
M  V30 11 1 11 8
M  V30 12 1 12 8
M  V30 13 1 13 8
M  V30 14 1 14 1
M  V30 END BOND
M  V30 END CTAB
M  END
$$$$
R-group 275 (20617-1)
     RDKit          3D

  0  0  0  0  0  0  0  0  0  0999 V3000
M  V30 BEGIN CTAB
M  V30 COUNTS 12 11 0 0 1
M  V30 BEGIN ATOM
M  V30 1 N 73.281700 54.458900 42.124700 0
M  V30 2 C 74.197700 55.330500 41.703200 0
M  V30 3 O 75.272400 55.017200 41.226100 0
M  V30 4 C 73.821900 56.780000 41.737900 0
M  V30 5 F 72.872100 56.975100 42.650300 0
M  V30 6 F 74.884900 57.496000 42.097300 0
M  V30 7 C 73.375400 57.192400 40.330400 0
M  V30 8 F 72.872100 58.385700 40.536300 0
M  V30 9 F 74.413700 57.249200 39.500600 0
M  V30 10 F 72.472400 56.409200 39.726800 0
M  V30 11 H 72.472700 54.826000 42.607200 0
M  V30 12 R 73.327100 53.028000 41.955800 0
M  V30 END ATOM
M  V30 BEGIN BOND
M  V30 1 1 2 1
M  V30 2 2 3 2
M  V30 3 1 4 2
M  V30 4 1 5 4
M  V30 5 1 6 4
M  V30 6 1 7 4
M  V30 7 1 8 7
M  V30 8 1 9 7
M  V30 9 1 10 7
M  V30 10 1 11 1
M  V30 11 1 12 1
M  V30 END BOND
M  V30 END CTAB
M  END
$$$$
R-group 276 (40477-2)
     RDKit          3D

  0  0  0  0  0  0  0  0  0  0999 V3000
M  V30 BEGIN CTAB
M  V30 COUNTS 20 19 0 0 1
M  V30 BEGIN ATOM
M  V30 1 C 76.072400 57.167600 43.557900 0
M  V30 2 C 75.614700 56.300500 42.389500 0
M  V30 3 C 74.300400 55.549800 42.730400 0 CFG=1
M  V30 4 C 73.067800 56.479800 42.633100 0
M  V30 5 C 72.872300 57.257700 41.296600 0
M  V30 6 C 72.872300 57.464700 43.760900 0
M  V30 7 H 76.996400 57.658500 43.321700 0
M  V30 8 H 75.472100 58.026400 43.724800 0
M  V30 9 H 76.116600 56.620300 44.505900 0
M  V30 10 H 76.442900 55.657700 42.143700 0
M  V30 11 H 75.533400 56.903900 41.489300 0
M  V30 12 H 74.365800 55.330400 43.793000 0
M  V30 13 H 72.290900 55.771400 42.924700 0
M  V30 14 H 73.751900 57.813200 40.986300 0
M  V30 15 H 72.102800 58.028300 41.388600 0
M  V30 16 H 72.583500 56.618700 40.468300 0
M  V30 17 H 73.586000 58.259100 43.726000 0
M  V30 18 H 71.968800 58.058000 43.725200 0
M  V30 19 H 72.864100 56.859300 44.664900 0
M  V30 20 R 74.060100 54.141500 42.053400 0
M  V30 END ATOM
M  V30 BEGIN BOND
M  V30 1 1 2 1
M  V30 2 1 3 2
M  V30 3 1 4 3
M  V30 4 1 5 4
M  V30 5 1 6 4
M  V30 6 1 7 1
M  V30 7 1 8 1
M  V30 8 1 9 1
M  V30 9 1 10 2
M  V30 10 1 11 2
M  V30 11 1 3 12 CFG=1
M  V30 12 1 13 4
M  V30 13 1 14 5
M  V30 14 1 15 5
M  V30 15 1 16 5
M  V30 16 1 17 6
M  V30 17 1 18 6
M  V30 18 1 19 6
M  V30 19 1 20 3
M  V30 END BOND
M  V30 END CTAB
M  END
$$$$
R-group 277 (1313-1)
     RDKit          3D

  0  0  0  0  0  0  0  0  0  0999 V3000
M  V30 BEGIN CTAB
M  V30 COUNTS 16 15 0 0 1
M  V30 BEGIN ATOM
M  V30 1 C 74.244100 55.322900 42.242300 0
M  V30 2 O 75.324400 55.732700 41.830100 0
M  V30 3 N 73.387100 56.068900 42.927300 0
M  V30 4 C 73.455600 57.474000 43.097200 0
M  V30 5 C 73.135200 58.304100 41.840600 0 CFG=1
M  V30 6 C 73.347400 57.707700 40.426300 0
M  V30 7 O 72.057500 59.263400 41.901000 0
M  V30 8 H 72.846400 57.753500 43.953800 0
M  V30 9 H 74.505600 57.656100 43.390800 0
M  V30 10 H 73.997300 58.901500 42.033600 0
M  V30 11 H 74.355100 57.320000 40.268500 0
M  V30 12 H 72.680500 56.892900 40.137200 0
M  V30 13 H 73.270200 58.507900 39.704100 0
M  V30 14 H 72.595000 55.587200 43.279800 0
M  V30 15 H 71.200900 58.830000 42.039800 0
M  V30 16 R 73.793100 53.875500 42.014800 0
M  V30 END ATOM
M  V30 BEGIN BOND
M  V30 1 2 2 1
M  V30 2 1 3 1
M  V30 3 1 4 3
M  V30 4 1 5 4
M  V30 5 1 6 5
M  V30 6 1 7 5
M  V30 7 1 8 4
M  V30 8 1 9 4
M  V30 9 1 5 10 CFG=3
M  V30 10 1 11 6
M  V30 11 1 12 6
M  V30 12 1 13 6
M  V30 13 1 14 3
M  V30 14 1 15 7
M  V30 15 1 16 1
M  V30 END BOND
M  V30 END CTAB
M  END
$$$$
R-group 278 (31541-1)
     RDKit          3D

  0  0  0  0  0  0  0  0  0  0999 V3000
M  V30 BEGIN CTAB
M  V30 COUNTS 11 10 0 0 1
M  V30 BEGIN ATOM
M  V30 1 O 73.578200 54.597200 42.089800 0
M  V30 2 C 74.640600 55.137100 41.325900 0
M  V30 3 S 75.190000 56.690600 41.960400 0
M  V30 4 N 73.684400 57.539900 42.038100 0
M  V30 5 O 75.672600 56.455700 43.324400 0
M  V30 6 O 76.064000 57.257500 40.925900 0
M  V30 7 H 75.558000 54.537300 41.313400 0
M  V30 8 H 74.319100 55.331400 40.305400 0
M  V30 9 H 73.379000 57.682100 43.002100 0
M  V30 10 H 73.668400 58.382300 41.460300 0
M  V30 11 R 73.413800 53.207900 41.952900 0
M  V30 END ATOM
M  V30 BEGIN BOND
M  V30 1 1 2 1
M  V30 2 1 3 2
M  V30 3 1 4 3
M  V30 4 2 5 3
M  V30 5 2 6 3
M  V30 6 1 7 2
M  V30 7 1 8 2
M  V30 8 1 9 4
M  V30 9 1 10 4
M  V30 10 1 11 1
M  V30 END BOND
M  V30 END CTAB
M  END
$$$$
R-group 279 (3992-1)
     RDKit          3D

  0  0  0  0  0  0  0  0  0  0999 V3000
M  V30 BEGIN CTAB
M  V30 COUNTS 15 15 0 0 1
M  V30 BEGIN ATOM
M  V30 1 C 74.176400 55.202300 42.679800 0 CFG=1
M  V30 2 C 75.646500 55.495900 42.897000 0
M  V30 3 N 73.766400 56.184500 41.704500 0
M  V30 4 C 73.942400 56.180000 40.327300 0
M  V30 5 C 73.272200 57.258000 39.864500 0
M  V30 6 N 72.872300 58.058000 40.925300 0
M  V30 7 C 73.277800 57.398600 41.991200 0
M  V30 8 H 73.692100 55.481600 43.614500 0
M  V30 9 H 76.071900 54.933600 43.724800 0
M  V30 10 H 76.089400 55.257500 41.940700 0
M  V30 11 H 75.834000 56.550900 43.104000 0
M  V30 12 H 74.426500 55.432400 39.742300 0
M  V30 13 H 73.114900 57.573700 38.851200 0
M  V30 14 H 73.115300 57.753800 42.998700 0
M  V30 15 R 73.787800 53.691700 42.375700 0
M  V30 END ATOM
M  V30 BEGIN BOND
M  V30 1 1 2 1
M  V30 2 1 3 1
M  V30 3 1 4 3
M  V30 4 2 5 4
M  V30 5 1 6 5
M  V30 6 1 7 3
M  V30 7 2 7 6
M  V30 8 1 1 8 CFG=1
M  V30 9 1 9 2
M  V30 10 1 10 2
M  V30 11 1 11 2
M  V30 12 1 12 4
M  V30 13 1 13 5
M  V30 14 1 14 7
M  V30 15 1 15 1
M  V30 END BOND
M  V30 END CTAB
M  END
$$$$
R-group 280 (16249-3)
     RDKit          3D

  0  0  0  0  0  0  0  0  0  0999 V3000
M  V30 BEGIN CTAB
M  V30 COUNTS 16 16 0 0 1
M  V30 BEGIN ATOM
M  V30 1 C 72.518700 58.676900 41.210900 0
M  V30 2 C 73.143500 57.802100 40.104200 0
M  V30 3 O 74.041300 56.858000 40.656500 0
M  V30 4 C 73.299700 55.855700 41.308900 0 CFG=2
M  V30 5 C 73.323600 55.942500 42.813200 0
M  V30 6 C 74.125700 54.886200 42.082700 0 CFG=1
M  V30 7 H 71.764000 59.364800 40.834400 0
M  V30 8 H 72.072400 58.081600 41.995400 0
M  V30 9 H 73.272300 59.258000 41.725400 0
M  V30 10 H 73.672100 58.419100 39.374600 0
M  V30 11 H 72.379400 57.258200 39.538800 0
M  V30 12 H 72.472300 55.448800 40.734500 0
M  V30 13 H 72.408100 55.658500 43.324700 0
M  V30 14 H 73.876300 56.761100 43.269100 0
M  V30 15 H 75.200600 55.046100 42.008700 0
M  V30 16 R 73.693400 53.434600 42.073200 0
M  V30 END ATOM
M  V30 BEGIN BOND
M  V30 1 1 2 1
M  V30 2 1 3 2
M  V30 3 1 4 3
M  V30 4 1 5 4
M  V30 5 1 6 4
M  V30 6 1 6 5
M  V30 7 1 7 1
M  V30 8 1 8 1
M  V30 9 1 9 1
M  V30 10 1 10 2
M  V30 11 1 11 2
M  V30 12 1 4 12 CFG=3
M  V30 13 1 13 5
M  V30 14 1 14 5
M  V30 15 1 6 15 CFG=3
M  V30 16 1 16 6
M  V30 END BOND
M  V30 END CTAB
M  END
$$$$
R-group 281 (4959-1)
     RDKit          3D

  0  0  0  0  0  0  0  0  0  0999 V3000
M  V30 BEGIN CTAB
M  V30 COUNTS 20 19 0 0 1
M  V30 BEGIN ATOM
M  V30 1 C 72.076300 59.280300 41.808500 0
M  V30 2 C 73.033700 58.121700 41.773400 0
M  V30 3 C 73.377300 57.546200 43.151400 0
M  V30 4 C 73.349800 56.004400 43.208900 0
M  V30 5 C 74.083500 55.320200 42.036900 0 CFG=1
M  V30 6 C 75.581300 55.591900 42.204400 0
M  V30 7 H 71.844700 59.640700 40.801000 0
M  V30 8 H 71.166300 58.916500 42.263500 0
M  V30 9 H 72.430800 60.103300 42.403300 0
M  V30 10 H 73.974100 58.407700 41.338200 0
M  V30 11 H 72.566900 57.402800 41.106100 0
M  V30 12 H 72.737100 57.936000 43.946000 0
M  V30 13 H 74.380000 57.894100 43.401100 0
M  V30 14 H 72.310400 55.678400 43.332100 0
M  V30 15 H 73.845000 55.643300 44.118700 0
M  V30 16 H 73.841400 55.827600 41.116700 0
M  V30 17 H 75.945100 55.296000 43.185500 0
M  V30 18 H 76.085400 55.074900 41.425200 0
M  V30 19 H 75.840600 56.642300 42.100200 0
M  V30 20 R 73.647600 53.823400 41.829700 0
M  V30 END ATOM
M  V30 BEGIN BOND
M  V30 1 1 2 1
M  V30 2 1 3 2
M  V30 3 1 4 3
M  V30 4 1 5 4
M  V30 5 1 6 5
M  V30 6 1 7 1
M  V30 7 1 8 1
M  V30 8 1 9 1
M  V30 9 1 10 2
M  V30 10 1 11 2
M  V30 11 1 12 3
M  V30 12 1 13 3
M  V30 13 1 14 4
M  V30 14 1 15 4
M  V30 15 1 5 16 CFG=3
M  V30 16 1 17 6
M  V30 17 1 18 6
M  V30 18 1 19 6
M  V30 19 1 20 5
M  V30 END BOND
M  V30 END CTAB
M  END
$$$$
R-group 282 (20703-2)
     RDKit          3D

  0  0  0  0  0  0  0  0  0  0999 V3000
M  V30 BEGIN CTAB
M  V30 COUNTS 21 20 0 0 1
M  V30 BEGIN ATOM
M  V30 1 C 72.727300 58.225300 41.325100 0
M  V30 2 C 72.899900 57.953800 42.828200 0
M  V30 3 C 73.030400 56.493200 43.315900 0
M  V30 4 O 74.289600 55.986700 42.924700 0
M  V30 5 C 74.326000 55.358600 41.661800 0 CFG=1
M  V30 6 C 75.767800 55.636700 41.191700 0
M  V30 7 C 75.984500 56.990900 40.524700 0
M  V30 8 H 72.343900 59.232600 41.157400 0
M  V30 9 H 73.672200 58.156900 40.811600 0
M  V30 10 H 72.073200 57.525800 40.816800 0
M  V30 11 H 72.072300 58.443300 43.324700 0
M  V30 12 H 73.803900 58.457700 43.157600 0
M  V30 13 H 72.248800 55.802600 43.040600 0
M  V30 14 H 72.953900 56.475100 44.400700 0
M  V30 15 H 73.649900 55.847000 40.964900 0
M  V30 16 H 76.450400 55.657600 42.040100 0
M  V30 17 H 76.072200 54.860100 40.507100 0
M  V30 18 H 76.995700 57.076400 40.127100 0
M  V30 19 H 75.287600 57.144600 39.702100 0
M  V30 20 H 75.861400 57.786100 41.256800 0
M  V30 21 R 73.856100 53.870400 41.785200 0
M  V30 END ATOM
M  V30 BEGIN BOND
M  V30 1 1 2 1
M  V30 2 1 3 2
M  V30 3 1 4 3
M  V30 4 1 5 4
M  V30 5 1 6 5
M  V30 6 1 7 6
M  V30 7 1 8 1
M  V30 8 1 9 1
M  V30 9 1 10 1
M  V30 10 1 11 2
M  V30 11 1 12 2
M  V30 12 1 13 3
M  V30 13 1 14 3
M  V30 14 1 5 15 CFG=3
M  V30 15 1 16 6
M  V30 16 1 17 6
M  V30 17 1 18 7
M  V30 18 1 19 7
M  V30 19 1 20 7
M  V30 20 1 21 5
M  V30 END BOND
M  V30 END CTAB
M  END
$$$$
R-group 283 (24555-4)
     RDKit          3D

  0  0  0  0  0  0  0  0  0  0999 V3000
M  V30 BEGIN CTAB
M  V30 COUNTS 18 18 0 0 1
M  V30 BEGIN ATOM
M  V30 1 O 73.371900 54.756400 42.400000 0
M  V30 2 C 74.489400 55.394200 41.872800 0 CFG=1
M  V30 3 C 74.030000 56.292100 40.748800 0
M  V30 4 C 75.276400 56.827300 40.081800 0
M  V30 5 O 76.157700 57.473500 40.972400 0
M  V30 6 C 76.390500 56.889800 42.242800 0
M  V30 7 C 75.189600 56.236200 42.906800 0 CFG=2
M  V30 8 O 75.681000 55.364300 43.877200 0
M  V30 9 H 75.199100 54.675200 41.469200 0
M  V30 10 H 73.412600 55.712400 40.029700 0
M  V30 11 H 73.398900 57.117400 41.096600 0
M  V30 12 H 75.041200 57.495600 39.263700 0
M  V30 13 H 75.809700 55.956700 39.725300 0
M  V30 14 H 76.815600 57.648900 42.906200 0
M  V30 15 H 77.121000 56.105700 42.068900 0
M  V30 16 H 74.542500 57.001900 43.342500 0
M  V30 17 H 76.190500 54.714700 43.419300 0
M  V30 18 R 73.286600 53.353400 42.158200 0
M  V30 END ATOM
M  V30 BEGIN BOND
M  V30 1 1 2 1
M  V30 2 1 3 2
M  V30 3 1 4 3
M  V30 4 1 5 4
M  V30 5 1 6 5
M  V30 6 1 7 2
M  V30 7 1 7 6
M  V30 8 1 8 7
M  V30 9 1 2 9 CFG=3
M  V30 10 1 10 3
M  V30 11 1 11 3
M  V30 12 1 12 4
M  V30 13 1 13 4
M  V30 14 1 14 6
M  V30 15 1 15 6
M  V30 16 1 7 16 CFG=1
M  V30 17 1 17 8
M  V30 18 1 18 1
M  V30 END BOND
M  V30 END CTAB
M  END
$$$$
R-group 284 (22958-6)
     RDKit          3D

  0  0  0  0  0  0  0  0  0  0999 V3000
M  V30 BEGIN CTAB
M  V30 COUNTS 24 25 0 0 1
M  V30 BEGIN ATOM
M  V30 1 O 74.014400 54.676200 41.936800 0
M  V30 2 C 75.369900 55.031400 42.172100 0 CFG=2
M  V30 3 C 75.444800 55.830200 43.472800 0
M  V30 4 C 75.079700 57.280200 43.087400 0 CFG=2
M  V30 5 O 73.719900 57.658000 43.322800 0
M  V30 6 C 72.889000 57.362900 42.274500 0
M  V30 7 C 73.802500 57.656800 41.111700 0 CFG=2
M  V30 8 C 73.372700 57.123600 39.759900 0
M  V30 9 C 75.223000 57.330400 41.571700 0 CFG=2
M  V30 10 C 75.789700 56.010600 41.114800 0
M  V30 11 H 76.071700 54.211500 42.124500 0
M  V30 12 H 74.799200 55.376300 44.219200 0
M  V30 13 H 76.469900 55.816500 43.851200 0
M  V30 14 H 75.682000 58.040000 43.612300 0
M  V30 15 H 72.641800 56.347300 42.524500 0
M  V30 16 H 72.072200 58.059400 42.297700 0
M  V30 17 H 73.671400 58.727900 41.089100 0
M  V30 18 H 73.168100 56.053800 39.766600 0
M  V30 19 H 72.472300 57.657500 39.524100 0
M  V30 20 H 74.100300 57.342300 38.979100 0
M  V30 21 H 75.964200 58.058600 41.279600 0
M  V30 22 H 76.871700 56.080300 41.110100 0
M  V30 23 H 75.505200 55.722300 40.111700 0
M  V30 24 R 73.571700 53.334000 42.042400 0
M  V30 END ATOM
M  V30 BEGIN BOND
M  V30 1 1 2 1
M  V30 2 1 3 2
M  V30 3 1 4 3
M  V30 4 1 5 4
M  V30 5 1 6 5
M  V30 6 1 7 6
M  V30 7 1 8 7
M  V30 8 1 9 4
M  V30 9 1 9 7
M  V30 10 1 10 2
M  V30 11 1 10 9
M  V30 12 1 2 11 CFG=1
M  V30 13 1 12 3
M  V30 14 1 13 3
M  V30 15 1 4 14 CFG=1
M  V30 16 1 15 6
M  V30 17 1 16 6
M  V30 18 1 7 17 CFG=3
M  V30 19 1 18 8
M  V30 20 1 19 8
M  V30 21 1 20 8
M  V30 22 1 9 21 CFG=1
M  V30 23 1 22 10
M  V30 24 1 23 10
M  V30 25 1 24 1
M  V30 END BOND
M  V30 END CTAB
M  END
$$$$
R-group 285 (20307-1)
     RDKit          3D

  0  0  0  0  0  0  0  0  0  0999 V3000
M  V30 BEGIN CTAB
M  V30 COUNTS 15 15 0 0 1
M  V30 BEGIN ATOM
M  V30 1 C 74.141900 54.652100 41.803000 0
M  V30 2 C 75.111500 55.078100 42.736400 0
M  V30 3 C 75.342500 56.420600 42.924000 0
M  V30 4 C 74.473000 57.257400 42.267500 0
M  V30 5 C 73.676300 56.802400 41.222700 0
M  V30 6 C 72.807800 57.799000 40.524700 0
M  V30 7 O 72.466900 58.821700 41.432700 0
M  V30 8 N 73.554600 55.500600 40.935600 0
M  V30 9 H 75.672800 54.435200 43.379000 0
M  V30 10 H 76.024300 56.794600 43.677900 0
M  V30 11 H 74.468200 58.277900 42.582800 0
M  V30 12 H 73.338700 58.217000 39.675400 0
M  V30 13 H 71.914300 57.317700 40.124600 0
M  V30 14 H 71.896800 59.434300 40.999300 0
M  V30 15 R 73.616900 53.234500 41.802200 0
M  V30 END ATOM
M  V30 BEGIN BOND
M  V30 1 2 2 1
M  V30 2 1 3 2
M  V30 3 2 4 3
M  V30 4 1 5 4
M  V30 5 1 6 5
M  V30 6 1 7 6
M  V30 7 1 8 1
M  V30 8 2 8 5
M  V30 9 1 9 2
M  V30 10 1 10 3
M  V30 11 1 11 4
M  V30 12 1 12 6
M  V30 13 1 13 6
M  V30 14 1 14 7
M  V30 15 1 15 1
M  V30 END BOND
M  V30 END CTAB
M  END
$$$$
R-group 286 (11396-1)
     RDKit          3D

  0  0  0  0  0  0  0  0  0  0999 V3000
M  V30 BEGIN CTAB
M  V30 COUNTS 15 15 0 0 1
M  V30 BEGIN ATOM
M  V30 1 C 74.899100 55.072200 42.247300 0
M  V30 2 N 74.220400 56.181100 41.645400 0
M  V30 3 C 73.672200 57.265800 42.278100 0
M  V30 4 C 73.010000 57.984200 41.324900 0
M  V30 5 C 72.138600 59.187800 41.473300 0
M  V30 6 C 73.272900 57.258000 40.124900 0
M  V30 7 N 74.058000 56.223000 40.310900 0
M  V30 8 H 75.179400 55.364800 43.260300 0
M  V30 9 H 75.836500 54.928300 41.711100 0
M  V30 10 H 73.733200 57.399100 43.346900 0
M  V30 11 H 72.072100 59.713000 40.525900 0
M  V30 12 H 71.140700 58.898900 41.774300 0
M  V30 13 H 72.472300 59.892200 42.227600 0
M  V30 14 H 72.941500 57.468000 39.119500 0
M  V30 15 R 74.061400 53.766600 42.279000 0
M  V30 END ATOM
M  V30 BEGIN BOND
M  V30 1 1 2 1
M  V30 2 1 3 2
M  V30 3 2 4 3
M  V30 4 1 5 4
M  V30 5 1 6 4
M  V30 6 1 7 2
M  V30 7 2 7 6
M  V30 8 1 8 1
M  V30 9 1 9 1
M  V30 10 1 10 3
M  V30 11 1 11 5
M  V30 12 1 12 5
M  V30 13 1 13 5
M  V30 14 1 14 6
M  V30 15 1 15 1
M  V30 END BOND
M  V30 END CTAB
M  END
$$$$
R-group 287 (42632-1)
     RDKit          3D

  0  0  0  0  0  0  0  0  0  0999 V3000
M  V30 BEGIN CTAB
M  V30 COUNTS 13 13 0 0 1
M  V30 BEGIN ATOM
M  V30 1 C 74.324000 55.131800 42.085700 0
M  V30 2 O 74.967800 55.503700 43.063700 0
M  V30 3 N 74.045200 56.088100 41.107000 0
M  V30 4 C 73.638800 57.417400 41.518900 0
M  V30 5 C 73.039400 57.549500 40.122100 0
M  V30 6 C 73.079500 56.029800 40.025600 0 CFG=1
M  V30 7 F 73.670500 55.599000 38.922500 0
M  V30 8 H 72.895100 57.419200 42.319300 0
M  V30 9 H 74.483300 58.060600 41.725400 0
M  V30 10 H 72.024900 57.929600 40.126800 0
M  V30 11 H 73.678700 58.058000 39.396600 0
M  V30 12 H 72.094700 55.586400 40.186200 0
M  V30 13 R 73.806900 53.663400 42.060300 0
M  V30 END ATOM
M  V30 BEGIN BOND
M  V30 1 2 2 1
M  V30 2 1 3 1
M  V30 3 1 4 3
M  V30 4 1 5 4
M  V30 5 1 6 3
M  V30 6 1 6 5
M  V30 7 1 7 6
M  V30 8 1 8 4
M  V30 9 1 9 4
M  V30 10 1 10 5
M  V30 11 1 11 5
M  V30 12 1 6 12 CFG=1
M  V30 13 1 13 1
M  V30 END BOND
M  V30 END CTAB
M  END
$$$$
R-group 288 (26169-1)
     RDKit          3D

  0  0  0  0  0  0  0  0  0  0999 V3000
M  V30 BEGIN CTAB
M  V30 COUNTS 21 21 0 0 1
M  V30 BEGIN ATOM
M  V30 1 C 74.724100 56.890200 39.391200 0
M  V30 2 C 76.005600 57.167400 40.226300 0
M  V30 3 C 75.866200 57.258000 41.746700 0
M  V30 4 C 74.470500 57.624800 42.274600 0
M  V30 5 C 73.531900 56.446900 42.202400 0 CFG=2
M  V30 6 C 72.752100 56.058100 43.400200 0
M  V30 7 C 73.921100 55.182400 42.951000 0 CFG=1
M  V30 8 H 74.872000 56.858200 38.316100 0
M  V30 9 H 74.270900 55.938600 39.631900 0
M  V30 10 H 73.971100 57.660200 39.546100 0
M  V30 11 H 76.471500 58.082600 39.861300 0
M  V30 12 H 76.743200 56.374900 40.124900 0
M  V30 13 H 76.622900 57.958000 42.102600 0
M  V30 14 H 76.182300 56.310600 42.180800 0
M  V30 15 H 74.034000 58.457900 41.729300 0
M  V30 16 H 74.556900 57.940500 43.316600 0
M  V30 17 H 72.968700 56.378200 41.280200 0
M  V30 18 H 71.777800 55.581200 43.324700 0
M  V30 19 H 72.872600 56.643500 44.308200 0
M  V30 20 H 74.785200 55.277100 43.604600 0
M  V30 21 R 73.691900 53.731700 42.473600 0
M  V30 END ATOM
M  V30 BEGIN BOND
M  V30 1 1 2 1
M  V30 2 1 3 2
M  V30 3 1 4 3
M  V30 4 1 5 4
M  V30 5 1 6 5
M  V30 6 1 7 5
M  V30 7 1 7 6
M  V30 8 1 8 1
M  V30 9 1 9 1
M  V30 10 1 10 1
M  V30 11 1 11 2
M  V30 12 1 12 2
M  V30 13 1 13 3
M  V30 14 1 14 3
M  V30 15 1 15 4
M  V30 16 1 16 4
M  V30 17 1 5 17 CFG=3
M  V30 18 1 18 6
M  V30 19 1 19 6
M  V30 20 1 7 20 CFG=1
M  V30 21 1 21 7
M  V30 END BOND
M  V30 END CTAB
M  END
$$$$
R-group 289 (41988-1)
     RDKit          3D

  0  0  0  0  0  0  0  0  0  0999 V3000
M  V30 BEGIN CTAB
M  V30 COUNTS 11 11 0 0 1
M  V30 BEGIN ATOM
M  V30 1 C 74.105100 54.701200 42.081000 0
M  V30 2 C 73.672400 55.674000 41.160800 0
M  V30 3 C 73.910300 56.802300 41.859700 0
M  V30 4 C 73.272000 58.094300 41.729400 0
M  V30 5 F 72.586300 58.226900 40.594100 0
M  V30 6 F 72.472900 58.381800 42.755500 0
M  V30 7 O 74.725100 56.598100 42.917100 0
M  V30 8 N 74.872200 55.220700 43.029200 0
M  V30 9 H 73.029200 55.574600 40.300400 0
M  V30 10 H 74.027900 58.858000 41.726600 0
M  V30 11 R 73.714000 53.260100 42.074300 0
M  V30 END ATOM
M  V30 BEGIN BOND
M  V30 1 1 2 1
M  V30 2 2 3 2
M  V30 3 1 4 3
M  V30 4 1 5 4
M  V30 5 1 6 4
M  V30 6 1 7 3
M  V30 7 2 8 1
M  V30 8 1 8 7
M  V30 9 1 9 2
M  V30 10 1 10 4
M  V30 11 1 11 1
M  V30 END BOND
M  V30 END CTAB
M  END
$$$$
R-group 290 (14367-1)
     RDKit          3D

  0  0  0  0  0  0  0  0  0  0999 V3000
M  V30 BEGIN CTAB
M  V30 COUNTS 13 13 0 0 1
M  V30 BEGIN ATOM
M  V30 1 C 72.872200 58.249500 40.290700 0
M  V30 2 O 73.363100 58.057900 41.588700 0
M  V30 3 C 73.992800 56.888700 41.713400 0
M  V30 4 C 73.672300 55.653200 41.270300 0
M  V30 5 C 74.197500 54.668700 42.123300 0
M  V30 6 C 75.140100 55.200700 42.966100 0
M  V30 7 S 75.412800 56.858000 42.673900 0
M  V30 8 H 72.474200 59.258200 40.183900 0
M  V30 9 H 73.627500 58.082600 39.517300 0
M  V30 10 H 72.043500 57.561900 40.124900 0
M  V30 11 H 72.877100 55.454600 40.572200 0
M  V30 12 H 75.734900 54.727900 43.727200 0
M  V30 13 R 73.723400 53.255900 42.093900 0
M  V30 END ATOM
M  V30 BEGIN BOND
M  V30 1 1 2 1
M  V30 2 1 3 2
M  V30 3 2 4 3
M  V30 4 1 5 4
M  V30 5 2 6 5
M  V30 6 1 7 3
M  V30 7 1 7 6
M  V30 8 1 8 1
M  V30 9 1 9 1
M  V30 10 1 10 1
M  V30 11 1 11 4
M  V30 12 1 12 6
M  V30 13 1 13 5
M  V30 END BOND
M  V30 END CTAB
M  END
$$$$
R-group 291 (19147-2)
     RDKit          3D

  0  0  0  0  0  0  0  0  0  0999 V3000
M  V30 BEGIN CTAB
M  V30 COUNTS 12 11 0 0 1
M  V30 BEGIN ATOM
M  V30 1 S 73.831900 55.301700 41.414600 0
M  V30 2 O 73.223900 55.755700 40.152100 0
M  V30 3 O 73.519500 55.986800 42.677100 0
M  V30 4 C 75.622000 55.433900 41.163300 0
M  V30 5 C 76.072100 56.778000 41.676800 0
M  V30 6 N 76.064100 56.876600 42.999600 0
M  V30 7 O 76.472400 57.657700 40.924600 0
M  V30 8 H 76.072200 54.660700 41.751400 0
M  V30 9 H 75.621700 56.156600 43.554000 0
M  V30 10 H 75.888100 55.306600 40.124900 0
M  V30 11 H 76.388900 57.728500 43.446600 0
M  V30 12 R 73.460900 53.491500 41.669300 0
M  V30 END ATOM
M  V30 BEGIN BOND
M  V30 1 2 2 1
M  V30 2 2 3 1
M  V30 3 1 4 1
M  V30 4 1 5 4
M  V30 5 1 6 5
M  V30 6 2 7 5
M  V30 7 1 8 4
M  V30 8 1 9 6
M  V30 9 1 10 4
M  V30 10 1 11 6
M  V30 11 1 12 1
M  V30 END BOND
M  V30 END CTAB
M  END
$$$$
R-group 292 (21128-1)
     RDKit          3D

  0  0  0  0  0  0  0  0  0  0999 V3000
M  V30 BEGIN CTAB
M  V30 COUNTS 11 10 0 0 1
M  V30 BEGIN ATOM
M  V30 1 C 74.799000 55.338900 42.137500 0
M  V30 2 N 74.072300 56.473500 41.592900 0
M  V30 3 C 73.446300 57.228100 42.664700 0
M  V30 4 C 72.676900 58.364800 42.138800 0
M  V30 5 N 72.072200 59.258000 41.724700 0
M  V30 6 H 75.729200 55.248200 41.577500 0
M  V30 7 H 75.100500 55.545100 43.165900 0
M  V30 8 H 74.711600 57.084300 41.102900 0
M  V30 9 H 74.212300 57.633700 43.324700 0
M  V30 10 H 72.784900 56.593200 43.255900 0
M  V30 11 R 74.007300 54.008100 42.049100 0
M  V30 END ATOM
M  V30 BEGIN BOND
M  V30 1 1 2 1
M  V30 2 1 3 2
M  V30 3 1 4 3
M  V30 4 3 5 4
M  V30 5 1 6 1
M  V30 6 1 7 1
M  V30 7 1 8 2
M  V30 8 1 9 3
M  V30 9 1 10 3
M  V30 10 1 11 1
M  V30 END BOND
M  V30 END CTAB
M  END
$$$$
R-group 293 (28162-1)
     RDKit          3D

  0  0  0  0  0  0  0  0  0  0999 V3000
M  V30 BEGIN CTAB
M  V30 COUNTS 15 14 0 0 1
M  V30 BEGIN ATOM
M  V30 1 C 74.410700 56.971500 39.054900 0
M  V30 2 O 75.272300 56.627400 40.124700 0
M  V30 3 C 75.193400 55.288500 40.553000 0
M  V30 4 C 73.958400 55.132100 41.438100 0 CFG=2
M  V30 5 C 74.189200 56.081500 42.613100 0
M  V30 6 F 74.429800 57.314500 42.249300 0
M  V30 7 F 73.105500 56.221600 43.324700 0
M  V30 8 F 75.227300 55.663200 43.324800 0
M  V30 9 H 74.483600 58.049500 38.924700 0
M  V30 10 H 74.702000 56.464500 38.134300 0
M  V30 11 H 73.360500 56.759300 39.243100 0
M  V30 12 H 76.072300 55.092000 41.151900 0
M  V30 13 H 75.249900 54.609500 39.724700 0
M  V30 14 H 73.082600 55.504900 40.913100 0
M  V30 15 R 73.605900 53.664100 41.827600 0
M  V30 END ATOM
M  V30 BEGIN BOND
M  V30 1 1 2 1
M  V30 2 1 3 2
M  V30 3 1 4 3
M  V30 4 1 5 4
M  V30 5 1 6 5
M  V30 6 1 7 5
M  V30 7 1 8 5
M  V30 8 1 9 1
M  V30 9 1 10 1
M  V30 10 1 11 1
M  V30 11 1 12 3
M  V30 12 1 13 3
M  V30 13 1 4 14 CFG=3
M  V30 14 1 15 4
M  V30 END BOND
M  V30 END CTAB
M  END
$$$$
R-group 294 (16846-1)
     RDKit          3D

  0  0  0  0  0  0  0  0  0  0999 V3000
M  V30 BEGIN CTAB
M  V30 COUNTS 16 16 0 0 1
M  V30 BEGIN ATOM
M  V30 1 C 73.786900 54.732800 42.458700 0 CFG=1
M  V30 2 O 74.871000 55.071100 43.324700 0
M  V30 3 C 73.860400 55.484800 41.184000 0
M  V30 4 C 72.966800 55.501300 40.125100 0
M  V30 5 N 73.335200 56.454100 39.230600 0
M  V30 6 C 74.472900 56.862500 39.722900 0
M  V30 7 N 74.864500 56.392200 40.880600 0
M  V30 8 C 76.054600 56.864900 41.580400 0
M  V30 9 H 72.881300 55.108500 42.926400 0
M  V30 10 H 72.018400 55.006900 39.993200 0
M  V30 11 H 75.032300 57.671400 39.319600 0
M  V30 12 H 76.549400 57.651300 41.010000 0
M  V30 13 H 75.778400 57.283300 42.549200 0
M  V30 14 H 76.765300 56.057400 41.724400 0
M  V30 15 H 75.661200 54.715800 42.952700 0
M  V30 16 R 73.591200 53.192800 42.294000 0
M  V30 END ATOM
M  V30 BEGIN BOND
M  V30 1 1 2 1
M  V30 2 1 3 1
M  V30 3 2 4 3
M  V30 4 1 5 4
M  V30 5 2 6 5
M  V30 6 1 7 3
M  V30 7 1 7 6
M  V30 8 1 8 7
M  V30 9 1 1 9 CFG=1
M  V30 10 1 10 4
M  V30 11 1 11 6
M  V30 12 1 12 8
M  V30 13 1 13 8
M  V30 14 1 14 8
M  V30 15 1 15 2
M  V30 16 1 16 1
M  V30 END BOND
M  V30 END CTAB
M  END
$$$$
R-group 295 (20094-1)
     RDKit          3D

  0  0  0  0  0  0  0  0  0  0999 V3000
M  V30 BEGIN CTAB
M  V30 COUNTS 12 12 0 0 1
M  V30 BEGIN ATOM
M  V30 1 C 76.873700 57.341700 40.389100 0
M  V30 2 O 76.472300 57.258000 41.717300 0
M  V30 3 C 75.409500 56.492500 41.869000 0
M  V30 4 N 75.271500 55.215200 41.573800 0
M  V30 5 C 74.071200 54.749800 42.084900 0
M  V30 6 C 73.382200 55.715100 42.739900 0
M  V30 7 S 74.023300 57.258000 42.524800 0
M  V30 8 H 77.672300 58.062600 40.261500 0
M  V30 9 H 77.255900 56.364700 40.124700 0
M  V30 10 H 76.049800 57.613200 39.725500 0
M  V30 11 H 72.468800 55.610800 43.309900 0
M  V30 12 R 73.669900 53.328000 41.973400 0
M  V30 END ATOM
M  V30 BEGIN BOND
M  V30 1 1 2 1
M  V30 2 1 3 2
M  V30 3 2 4 3
M  V30 4 1 5 4
M  V30 5 2 6 5
M  V30 6 1 7 3
M  V30 7 1 7 6
M  V30 8 1 8 1
M  V30 9 1 9 1
M  V30 10 1 10 1
M  V30 11 1 11 6
M  V30 12 1 12 5
M  V30 END BOND
M  V30 END CTAB
M  END
$$$$
R-group 296 (1912-1)
     RDKit          3D

  0  0  0  0  0  0  0  0  0  0999 V3000
M  V30 BEGIN CTAB
M  V30 COUNTS 12 11 0 0 1
M  V30 BEGIN ATOM
M  V30 1 C 73.580200 54.741300 42.319200 0
M  V30 2 N 74.843000 55.329100 41.962800 0
M  V30 3 S 74.769900 56.665400 40.922400 0
M  V30 4 N 73.672400 57.657600 41.823100 0
M  V30 5 O 76.110700 57.257900 40.925300 0
M  V30 6 O 74.082400 56.264200 39.686200 0
M  V30 7 H 72.864300 55.224500 41.689100 0
M  V30 8 H 73.340900 55.034700 43.324600 0
M  V30 9 H 74.103000 58.535700 42.112000 0
M  V30 10 H 75.491500 55.456500 42.741700 0
M  V30 11 H 72.810600 57.811900 41.303500 0
M  V30 12 R 73.498300 53.244000 42.033500 0
M  V30 END ATOM
M  V30 BEGIN BOND
M  V30 1 1 2 1
M  V30 2 1 3 2
M  V30 3 1 4 3
M  V30 4 2 5 3
M  V30 5 2 6 3
M  V30 6 1 7 1
M  V30 7 1 8 1
M  V30 8 1 9 4
M  V30 9 1 10 2
M  V30 10 1 11 4
M  V30 11 1 12 1
M  V30 END BOND
M  V30 END CTAB
M  END
$$$$
R-group 297 (8841-1)
     RDKit          3D

  0  0  0  0  0  0  0  0  0  0999 V3000
M  V30 BEGIN CTAB
M  V30 COUNTS 11 11 0 0 1
M  V30 BEGIN ATOM
M  V30 1 C 73.209100 54.614600 42.262400 0
M  V30 2 C 74.133000 55.671700 41.822500 0
M  V30 3 N 74.169200 56.222600 40.620000 0
M  V30 4 C 75.375500 56.858000 40.704400 0
M  V30 5 N 75.976300 56.855400 41.882400 0
M  V30 6 N 75.172500 56.069100 42.583900 0
M  V30 7 H 72.204200 54.854800 42.005700 0
M  V30 8 H 73.285700 54.645000 43.324600 0
M  V30 9 H 75.802700 57.394000 39.873200 0
M  V30 10 H 75.340900 55.778900 43.531300 0
M  V30 11 R 73.510000 53.207700 41.730200 0
M  V30 END ATOM
M  V30 BEGIN BOND
M  V30 1 1 2 1
M  V30 2 2 3 2
M  V30 3 1 4 3
M  V30 4 2 5 4
M  V30 5 1 6 2
M  V30 6 1 6 5
M  V30 7 1 7 1
M  V30 8 1 8 1
M  V30 9 1 9 4
M  V30 10 1 10 6
M  V30 11 1 11 1
M  V30 END BOND
M  V30 END CTAB
M  END
$$$$
R-group 298 (12634-2)
     RDKit          3D

  0  0  0  0  0  0  0  0  0  0999 V3000
M  V30 BEGIN CTAB
M  V30 COUNTS 12 11 0 0 1
M  V30 BEGIN ATOM
M  V30 1 C 73.362300 57.643200 40.317200 0
M  V30 2 N 73.285900 56.205100 40.445500 0
M  V30 3 S 74.220500 55.546300 41.523300 0 CFG=1
M  V30 4 O 75.672200 55.658300 41.376900 0
M  V30 5 C 73.781800 56.207900 43.179400 0
M  V30 6 F 74.132700 57.488200 43.282300 0
M  V30 7 F 72.472000 56.067000 43.333000 0
M  V30 8 F 74.436800 55.496100 44.098400 0
M  V30 9 H 73.687300 57.955300 39.322700 0
M  V30 10 H 72.410400 58.130900 40.526500 0
M  V30 11 H 74.072100 58.057900 41.019600 0
M  V30 12 R 73.651000 53.763700 41.694200 0
M  V30 END ATOM
M  V30 BEGIN BOND
M  V30 1 1 2 1
M  V30 2 2 3 2
M  V30 3 2 4 3
M  V30 4 1 5 3
M  V30 5 1 6 5
M  V30 6 1 7 5
M  V30 7 1 8 5
M  V30 8 1 9 1
M  V30 9 1 10 1
M  V30 10 1 11 1
M  V30 11 1 3 12 CFG=1
M  V30 END BOND
M  V30 END CTAB
M  END
$$$$
R-group 299 (41210-1)
     RDKit          3D

  0  0  0  0  0  0  0  0  0  0999 V3000
M  V30 BEGIN CTAB
M  V30 COUNTS 18 18 0 0 1
M  V30 BEGIN ATOM
M  V30 1 O 73.946200 54.179200 42.148900 0
M  V30 2 C 72.876000 55.031500 42.097300 0
M  V30 3 C 73.562800 56.384900 42.197700 0
M  V30 4 N 74.176600 56.859300 40.970800 0
M  V30 5 C 73.300100 57.129300 39.839500 0
M  V30 6 C 74.097300 56.081800 39.071100 0
M  V30 7 F 73.392300 54.959700 38.926300 0
M  V30 8 C 75.125400 56.068800 40.214500 0
M  V30 9 H 72.357100 54.857900 41.158000 0
M  V30 10 H 72.188200 54.862100 42.924100 0
M  V30 11 H 72.847700 57.131300 42.536900 0
M  V30 12 H 74.324100 56.349700 42.980900 0
M  V30 13 H 72.249300 56.887700 40.006800 0
M  V30 14 H 73.449300 58.133500 39.431300 0
M  V30 15 H 74.473600 56.451700 38.124800 0
M  V30 16 H 76.013200 56.655300 39.986800 0
M  V30 17 H 75.394800 55.125300 40.669400 0
M  V30 18 R 73.583900 52.849600 42.178200 0
M  V30 END ATOM
M  V30 BEGIN BOND
M  V30 1 1 2 1
M  V30 2 1 3 2
M  V30 3 1 4 3
M  V30 4 1 5 4
M  V30 5 1 6 5
M  V30 6 1 7 6
M  V30 7 1 8 4
M  V30 8 1 8 6
M  V30 9 1 9 2
M  V30 10 1 10 2
M  V30 11 1 11 3
M  V30 12 1 12 3
M  V30 13 1 13 5
M  V30 14 1 14 5
M  V30 15 1 15 6
M  V30 16 1 16 8
M  V30 17 1 17 8
M  V30 18 1 18 1
M  V30 END BOND
M  V30 END CTAB
M  END
$$$$
R-group 300 (1475-1)
     RDKit          3D

  0  0  0  0  0  0  0  0  0  0999 V3000
M  V30 BEGIN CTAB
M  V30 COUNTS 16 15 0 0 1
M  V30 BEGIN ATOM
M  V30 1 S 73.675100 55.412700 41.675600 0
M  V30 2 O 73.272400 55.952300 40.367500 0
M  V30 3 O 73.272200 56.063400 42.924700 0
M  V30 4 N 75.348700 55.428300 41.665200 0
M  V30 5 C 76.214600 56.563000 41.959600 0
M  V30 6 C 75.909900 57.258000 43.270200 0
M  V30 7 C 76.390000 57.492800 40.770900 0
M  V30 8 H 77.192500 56.140100 42.124500 0
M  V30 9 H 76.634000 58.057800 43.324700 0
M  V30 10 H 74.927700 57.721300 43.323700 0
M  V30 11 H 76.068700 56.601000 44.124700 0
M  V30 12 H 76.791900 58.456300 41.067700 0
M  V30 13 H 77.136400 57.047400 40.128000 0
M  V30 14 H 75.475000 57.649000 40.206700 0
M  V30 15 H 75.735000 54.803300 40.955300 0
M  V30 16 R 73.341800 53.588500 41.787800 0
M  V30 END ATOM
M  V30 BEGIN BOND
M  V30 1 2 2 1
M  V30 2 2 3 1
M  V30 3 1 4 1
M  V30 4 1 5 4
M  V30 5 1 6 5
M  V30 6 1 7 5
M  V30 7 1 8 5
M  V30 8 1 9 6
M  V30 9 1 10 6
M  V30 10 1 11 6
M  V30 11 1 12 7
M  V30 12 1 13 7
M  V30 13 1 14 7
M  V30 14 1 15 4
M  V30 15 1 16 1
M  V30 END BOND
M  V30 END CTAB
M  END
$$$$
R-group 301 (24036-1)
     RDKit          3D

  0  0  0  0  0  0  0  0  0  0999 V3000
M  V30 BEGIN CTAB
M  V30 COUNTS 16 15 0 0 1
M  V30 BEGIN ATOM
M  V30 1 C 77.016300 55.257800 44.760200 0
M  V30 2 C 76.312500 56.058900 43.646500 0
M  V30 3 N 75.062000 55.432300 43.324700 0
M  V30 4 S 74.302600 55.827900 41.875400 0
M  V30 5 O 75.292100 55.577200 40.820300 0
M  V30 6 O 73.719000 57.167600 42.042000 0
M  V30 7 C 72.959300 54.572000 41.940800 0
M  V30 8 H 78.004800 55.658200 44.985900 0
M  V30 9 H 76.406400 55.257000 45.664600 0
M  V30 10 H 77.168100 54.207400 44.525200 0
M  V30 11 H 76.872300 56.058900 42.715900 0
M  V30 12 H 76.139700 57.098700 43.931100 0
M  V30 13 H 72.238400 54.858000 41.182900 0
M  V30 14 H 72.476100 54.668000 42.918100 0
M  V30 15 H 75.095900 54.423100 43.447100 0
M  V30 16 R 73.322700 53.106500 41.644600 0
M  V30 END ATOM
M  V30 BEGIN BOND
M  V30 1 1 2 1
M  V30 2 1 3 2
M  V30 3 1 4 3
M  V30 4 2 5 4
M  V30 5 2 6 4
M  V30 6 1 7 4
M  V30 7 1 8 1
M  V30 8 1 9 1
M  V30 9 1 10 1
M  V30 10 1 11 2
M  V30 11 1 12 2
M  V30 12 1 13 7
M  V30 13 1 14 7
M  V30 14 1 15 3
M  V30 15 1 16 7
M  V30 END BOND
M  V30 END CTAB
M  END
$$$$
R-group 302 (32481-1)
     RDKit          3D

  0  0  0  0  0  0  0  0  0  0999 V3000
M  V30 BEGIN CTAB
M  V30 COUNTS 12 12 0 0 1
M  V30 BEGIN ATOM
M  V30 1 C 73.869800 54.641100 41.738500 0
M  V30 2 C 73.617400 55.695200 42.537300 0
M  V30 3 N 74.071700 56.859700 42.001300 0
M  V30 4 C 74.582600 56.413800 40.875300 0
M  V30 5 C 75.386800 57.167200 39.992900 0
M  V30 6 O 76.472400 57.657100 40.739000 0
M  V30 7 O 74.554400 55.080400 40.678700 0
M  V30 8 H 72.903100 55.710100 43.326700 0
M  V30 9 H 75.705300 56.410400 39.341700 0
M  V30 10 H 74.800600 57.793800 39.324600 0
M  V30 11 H 76.132700 57.994700 41.546200 0
M  V30 12 R 73.537500 53.215000 41.849700 0
M  V30 END ATOM
M  V30 BEGIN BOND
M  V30 1 2 2 1
M  V30 2 1 3 2
M  V30 3 2 4 3
M  V30 4 1 5 4
M  V30 5 1 6 5
M  V30 6 1 7 1
M  V30 7 1 7 4
M  V30 8 1 8 2
M  V30 9 1 9 5
M  V30 10 1 10 5
M  V30 11 1 11 6
M  V30 12 1 12 1
M  V30 END BOND
M  V30 END CTAB
M  END
$$$$
R-group 303 (5739-1)
     RDKit          3D

  0  0  0  0  0  0  0  0  0  0999 V3000
M  V30 BEGIN CTAB
M  V30 COUNTS 15 15 0 0 1
M  V30 BEGIN ATOM
M  V30 1 O 72.622000 53.556700 42.523700 0
M  V30 2 C 73.307000 54.739400 42.922800 0
M  V30 3 C 73.948600 55.432800 41.799900 0
M  V30 4 C 75.132700 56.145500 41.990100 0
M  V30 5 C 75.568200 56.856100 40.883400 0
M  V30 6 N 74.872200 56.858000 39.724700 0
M  V30 7 C 73.757100 56.188300 39.535700 0
M  V30 8 C 73.272400 55.447500 40.575400 0
M  V30 9 H 72.578600 55.446600 43.322000 0
M  V30 10 H 74.073000 54.595200 43.689000 0
M  V30 11 H 75.666200 56.166900 42.929700 0
M  V30 12 H 76.471100 57.449800 40.919800 0
M  V30 13 H 73.266700 56.259700 38.577300 0
M  V30 14 H 72.325500 54.944500 40.459700 0
M  V30 15 R 73.375700 52.511800 41.931000 0
M  V30 END ATOM
M  V30 BEGIN BOND
M  V30 1 1 2 1
M  V30 2 1 3 2
M  V30 3 2 4 3
M  V30 4 1 5 4
M  V30 5 2 6 5
M  V30 6 1 7 6
M  V30 7 1 8 3
M  V30 8 2 8 7
M  V30 9 1 9 2
M  V30 10 1 10 2
M  V30 11 1 11 4
M  V30 12 1 12 5
M  V30 13 1 13 7
M  V30 14 1 14 8
M  V30 15 1 15 1
M  V30 END BOND
M  V30 END CTAB
M  END
$$$$
R-group 304 (604-1)
     RDKit          3D

  0  0  0  0  0  0  0  0  0  0999 V3000
M  V30 BEGIN CTAB
M  V30 COUNTS 12 11 0 0 1
M  V30 BEGIN ATOM
M  V30 1 C 73.690000 54.648100 41.866600 0
M  V30 2 O 73.272100 55.145200 40.831600 0
M  V30 3 N 74.455000 55.329200 42.738700 0
M  V30 4 C 75.043300 56.638000 42.484100 0
M  V30 5 C 75.469000 56.809300 41.013000 0
M  V30 6 F 76.472500 57.658000 40.924400 0
M  V30 7 F 75.912700 55.662100 40.528300 0
M  V30 8 F 74.451900 57.241300 40.256800 0
M  V30 9 H 74.357500 57.437400 42.787900 0
M  V30 10 H 75.925700 56.713900 43.122700 0
M  V30 11 H 74.733800 54.856500 43.583500 0
M  V30 12 R 73.476300 53.157500 42.097800 0
M  V30 END ATOM
M  V30 BEGIN BOND
M  V30 1 2 2 1
M  V30 2 1 3 1
M  V30 3 1 4 3
M  V30 4 1 5 4
M  V30 5 1 6 5
M  V30 6 1 7 5
M  V30 7 1 8 5
M  V30 8 1 9 4
M  V30 9 1 10 4
M  V30 10 1 11 3
M  V30 11 1 12 1
M  V30 END BOND
M  V30 END CTAB
M  END
$$$$
R-group 305 (27275-1)
     RDKit          3D

  0  0  0  0  0  0  0  0  0  0999 V3000
M  V30 BEGIN CTAB
M  V30 COUNTS 25 25 0 0 1
M  V30 BEGIN ATOM
M  V30 1 C 76.890900 57.440900 40.823100 0
M  V30 2 O 75.553300 57.163400 41.087700 0
M  V30 3 C 75.264500 55.931200 41.714400 0
M  V30 4 C 73.750900 55.919400 41.783700 0
M  V30 5 C 73.231200 54.590600 42.424700 0
M  V30 6 C 73.112200 56.233200 40.395900 0
M  V30 7 C 72.563400 57.654300 40.422000 0
M  V30 8 C 72.687000 58.228600 41.856300 0
M  V30 9 C 73.279700 57.096100 42.705500 0
M  V30 10 H 76.949300 58.388900 40.282000 0
M  V30 11 H 77.472900 57.489700 41.764300 0
M  V30 12 H 77.270400 56.638800 40.125500 0
M  V30 13 H 75.698700 55.937200 42.723200 0
M  V30 14 H 75.620300 55.070400 41.136700 0
M  V30 15 H 72.155000 54.671500 42.573800 0
M  V30 16 H 73.679800 54.637100 43.419300 0
M  V30 17 H 73.821200 56.014700 39.575400 0
M  V30 18 H 72.250100 55.590700 40.206300 0
M  V30 19 H 73.138200 58.313700 39.795100 0
M  V30 20 H 71.556300 57.621100 40.124700 0
M  V30 21 H 73.353600 59.081300 41.921300 0
M  V30 22 H 71.700500 58.524000 42.255100 0
M  V30 23 H 72.517700 56.777900 43.419400 0
M  V30 24 H 74.118300 57.474800 43.322500 0
M  V30 25 R 73.522500 53.208500 41.774300 0
M  V30 END ATOM
M  V30 BEGIN BOND
M  V30 1 1 2 1
M  V30 2 1 3 2
M  V30 3 1 4 3
M  V30 4 1 5 4
M  V30 5 1 6 4
M  V30 6 1 7 6
M  V30 7 1 8 7
M  V30 8 1 9 4
M  V30 9 1 9 8
M  V30 10 1 10 1
M  V30 11 1 11 1
M  V30 12 1 12 1
M  V30 13 1 13 3
M  V30 14 1 14 3
M  V30 15 1 15 5
M  V30 16 1 16 5
M  V30 17 1 17 6
M  V30 18 1 18 6
M  V30 19 1 19 7
M  V30 20 1 20 7
M  V30 21 1 21 8
M  V30 22 1 22 8
M  V30 23 1 23 9
M  V30 24 1 24 9
M  V30 25 1 25 5
M  V30 END BOND
M  V30 END CTAB
M  END
$$$$
R-group 306 (14216-1)
     RDKit          3D

  0  0  0  0  0  0  0  0  0  0999 V3000
M  V30 BEGIN CTAB
M  V30 COUNTS 15 15 0 0 1
M  V30 BEGIN ATOM
M  V30 1 C 74.016900 54.978200 41.890700 0
M  V30 2 C 74.868800 55.458200 42.840600 0
M  V30 3 N 75.113500 56.807900 42.658800 0
M  V30 4 C 76.072300 57.614900 43.343900 0
M  V30 5 N 74.403100 57.255900 41.621300 0
M  V30 6 C 73.757900 56.187800 41.166300 0
M  V30 7 C 72.910200 56.385300 39.944600 0
M  V30 8 H 75.344500 54.966900 43.635500 0
M  V30 9 H 76.652500 56.911400 43.948000 0
M  V30 10 H 76.745100 58.071400 42.618100 0
M  V30 11 H 75.580000 58.261200 44.124600 0
M  V30 12 H 73.360500 55.853900 39.103500 0
M  V30 13 H 71.870800 56.068600 40.109000 0
M  V30 14 H 72.908500 57.434100 39.659000 0
M  V30 15 R 73.608800 53.532500 41.706900 0
M  V30 END ATOM
M  V30 BEGIN BOND
M  V30 1 2 2 1
M  V30 2 1 3 2
M  V30 3 1 4 3
M  V30 4 1 5 3
M  V30 5 1 6 1
M  V30 6 2 6 5
M  V30 7 1 7 6
M  V30 8 1 8 2
M  V30 9 1 9 4
M  V30 10 1 10 4
M  V30 11 1 11 4
M  V30 12 1 12 7
M  V30 13 1 13 7
M  V30 14 1 14 7
M  V30 15 1 15 1
M  V30 END BOND
M  V30 END CTAB
M  END
$$$$
R-group 307 (21077-2)
     RDKit          3D

  0  0  0  0  0  0  0  0  0  0999 V3000
M  V30 BEGIN CTAB
M  V30 COUNTS 34 33 0 0 1
M  V30 BEGIN ATOM
M  V30 1 C 69.016600 53.045400 39.918700 0
M  V30 2 C 69.248900 53.543300 38.483300 0
M  V30 3 C 69.670400 55.021200 38.392800 0
M  V30 4 C 71.074600 55.292600 38.953500 0
M  V30 5 C 71.459900 56.779100 38.924900 0
M  V30 6 C 72.913900 57.094200 39.366700 0
M  V30 7 C 72.996800 57.060000 40.885800 0
M  V30 8 C 74.273900 57.554700 41.545000 0
M  V30 9 C 74.615600 56.949800 42.923800 0 CFG=2
M  V30 10 O 76.012300 56.858400 43.037900 0
M  V30 11 C 74.072100 55.552100 43.225600 0
M  V30 12 O 74.386100 54.711900 42.128100 0
M  V30 13 H 68.652900 52.018100 39.917200 0
M  V30 14 H 69.932900 53.062600 40.508800 0
M  V30 15 H 68.276000 53.653900 40.437800 0
M  V30 16 H 68.325100 53.410500 37.919300 0
M  V30 17 H 69.993700 52.916600 37.991600 0
M  V30 18 H 68.939400 55.640800 38.915300 0
M  V30 19 H 69.639800 55.331600 37.347600 0
M  V30 20 H 71.809400 54.696400 38.413100 0
M  V30 21 H 71.088100 54.963800 39.991400 0
M  V30 22 H 70.744200 57.258000 39.581200 0
M  V30 23 H 71.271800 57.213500 37.944800 0
M  V30 24 H 73.272700 58.063000 39.015600 0
M  V30 25 H 73.606300 56.370300 38.933600 0
M  V30 26 H 72.872400 56.016400 41.107700 0
M  V30 27 H 72.193900 57.657600 41.312300 0
M  V30 28 H 74.072200 58.606000 41.724800 0
M  V30 29 H 75.113600 57.438900 40.857700 0
M  V30 30 H 74.259200 57.623500 43.712100 0
M  V30 31 H 72.989100 55.636700 43.324900 0
M  V30 32 H 74.472400 55.166400 44.162600 0
M  V30 33 H 76.344100 57.678300 43.383700 0
M  V30 34 R 73.824400 53.415900 42.162600 0
M  V30 END ATOM
M  V30 BEGIN BOND
M  V30 1 1 2 1
M  V30 2 1 3 2
M  V30 3 1 4 3
M  V30 4 1 5 4
M  V30 5 1 6 5
M  V30 6 1 7 6
M  V30 7 1 8 7
M  V30 8 1 9 8
M  V30 9 1 10 9
M  V30 10 1 11 9
M  V30 11 1 12 11
M  V30 12 1 13 1
M  V30 13 1 14 1
M  V30 14 1 15 1
M  V30 15 1 16 2
M  V30 16 1 17 2
M  V30 17 1 18 3
M  V30 18 1 19 3
M  V30 19 1 20 4
M  V30 20 1 21 4
M  V30 21 1 22 5
M  V30 22 1 23 5
M  V30 23 1 24 6
M  V30 24 1 25 6
M  V30 25 1 26 7
M  V30 26 1 27 7
M  V30 27 1 28 8
M  V30 28 1 29 8
M  V30 29 1 9 30 CFG=1
M  V30 30 1 31 11
M  V30 31 1 32 11
M  V30 32 1 33 10
M  V30 33 1 34 12
M  V30 END BOND
M  V30 END CTAB
M  END
$$$$
R-group 308 (21994-1)
     RDKit          3D

  0  0  0  0  0  0  0  0  0  0999 V3000
M  V30 BEGIN CTAB
M  V30 COUNTS 17 16 0 0 1
M  V30 BEGIN ATOM
M  V30 1 C 74.162700 56.996900 38.935700 0
M  V30 2 N 74.478000 56.304600 40.158200 0
M  V30 3 C 75.498100 56.464600 41.019000 0
M  V30 4 O 76.441800 57.257900 40.924800 0
M  V30 5 C 75.442400 55.508200 42.193400 0
M  V30 6 N 74.073400 55.052800 42.524900 0
M  V30 7 C 73.109700 56.073400 42.927500 0
M  V30 8 H 73.176500 56.691800 38.589900 0
M  V30 9 H 74.119700 58.053100 39.150100 0
M  V30 10 H 74.871800 56.777800 38.146400 0
M  V30 11 H 75.889800 55.979600 43.069900 0
M  V30 12 H 76.071900 54.674700 41.912600 0
M  V30 13 H 72.185200 55.653300 43.324700 0
M  V30 14 H 73.534600 56.676000 43.724400 0
M  V30 15 H 72.873100 56.763600 42.119700 0
M  V30 16 H 73.817600 55.593700 40.447600 0
M  V30 17 R 73.643000 53.662300 42.311900 0
M  V30 END ATOM
M  V30 BEGIN BOND
M  V30 1 1 2 1
M  V30 2 1 3 2
M  V30 3 2 4 3
M  V30 4 1 5 3
M  V30 5 1 6 5
M  V30 6 1 7 6
M  V30 7 1 8 1
M  V30 8 1 9 1
M  V30 9 1 10 1
M  V30 10 1 11 5
M  V30 11 1 12 5
M  V30 12 1 13 7
M  V30 13 1 14 7
M  V30 14 1 15 7
M  V30 15 1 16 2
M  V30 16 1 17 6
M  V30 END BOND
M  V30 END CTAB
M  END
$$$$
R-group 309 (23754-2)
     RDKit          3D

  0  0  0  0  0  0  0  0  0  0999 V3000
M  V30 BEGIN CTAB
M  V30 COUNTS 15 15 0 0 1
M  V30 BEGIN ATOM
M  V30 1 C 73.639500 55.067700 42.924000 0
M  V30 2 C 74.293900 56.342700 42.356200 0 CFG=1
M  V30 3 C 75.746200 56.185300 41.953200 0
M  V30 4 N 75.674400 56.459700 40.538600 0
M  V30 5 C 74.438900 56.575800 40.085600 0
M  V30 6 O 74.071700 56.457800 38.925300 0
M  V30 7 N 73.671100 56.764300 41.133100 0
M  V30 8 H 72.583900 55.308800 43.043600 0
M  V30 9 H 74.072800 55.031500 43.916400 0
M  V30 10 H 74.195200 57.158300 43.075300 0
M  V30 11 H 76.408400 56.885100 42.464200 0
M  V30 12 H 76.072200 55.166400 42.124600 0
M  V30 13 H 76.459300 56.299600 39.921700 0
M  V30 14 H 72.670800 56.872300 41.052400 0
M  V30 15 R 73.697200 53.643000 42.239900 0
M  V30 END ATOM
M  V30 BEGIN BOND
M  V30 1 1 2 1
M  V30 2 1 3 2
M  V30 3 1 4 3
M  V30 4 1 5 4
M  V30 5 2 6 5
M  V30 6 1 7 2
M  V30 7 1 7 5
M  V30 8 1 8 1
M  V30 9 1 9 1
M  V30 10 1 2 10 CFG=1
M  V30 11 1 11 3
M  V30 12 1 12 3
M  V30 13 1 13 4
M  V30 14 1 14 7
M  V30 15 1 15 1
M  V30 END BOND
M  V30 END CTAB
M  END
$$$$
R-group 310 (39720-2)
     RDKit          3D

  0  0  0  0  0  0  0  0  0  0999 V3000
M  V30 BEGIN CTAB
M  V30 COUNTS 17 17 0 0 1
M  V30 BEGIN ATOM
M  V30 1 C 76.292000 56.084800 43.463800 0
M  V30 2 O 75.106600 55.320200 43.403700 0
M  V30 3 C 74.397100 55.361400 42.189500 0 CFG=2
M  V30 4 C 73.288800 56.410500 42.314900 0
M  V30 5 C 73.456600 57.801300 42.926500 0
M  V30 6 O 72.872200 58.453000 41.776000 0
M  V30 7 C 72.973100 57.216700 41.041800 0
M  V30 8 H 76.891200 55.656100 44.259500 0
M  V30 9 H 76.869100 56.058800 42.533100 0
M  V30 10 H 76.129600 57.121900 43.738600 0
M  V30 11 H 75.083200 55.637600 41.390100 0
M  V30 12 H 72.472200 56.011200 42.925200 0
M  V30 13 H 72.871000 57.955800 43.833500 0
M  V30 14 H 74.471900 58.114800 43.080100 0
M  V30 15 H 73.806400 57.252900 40.338600 0
M  V30 16 H 72.072900 56.937100 40.507700 0
M  V30 17 R 73.845600 53.921400 41.893300 0
M  V30 END ATOM
M  V30 BEGIN BOND
M  V30 1 1 2 1
M  V30 2 1 3 2
M  V30 3 1 4 3
M  V30 4 1 5 4
M  V30 5 1 6 5
M  V30 6 1 7 4
M  V30 7 1 7 6
M  V30 8 1 8 1
M  V30 9 1 9 1
M  V30 10 1 10 1
M  V30 11 1 3 11 CFG=3
M  V30 12 1 12 4
M  V30 13 1 13 5
M  V30 14 1 14 5
M  V30 15 1 15 7
M  V30 16 1 16 7
M  V30 17 1 17 3
M  V30 END BOND
M  V30 END CTAB
M  END
$$$$
R-group 311 (16190-1)
     RDKit          3D

  0  0  0  0  0  0  0  0  0  0999 V3000
M  V30 BEGIN CTAB
M  V30 COUNTS 12 11 0 0 1
M  V30 BEGIN ATOM
M  V30 1 O 74.122800 55.078500 42.043000 0
M  V30 2 C 74.237600 55.868900 43.221900 0
M  V30 3 C 73.177900 56.948800 43.218700 0
M  V30 4 F 73.272200 57.661500 42.095500 0
M  V30 5 C 75.637100 56.456500 43.292300 0
M  V30 6 F 76.272900 55.658000 44.124700 0
M  V30 7 H 74.073300 55.281900 44.121500 0
M  V30 8 H 72.218600 56.455200 43.324800 0
M  V30 9 H 73.272200 57.642200 44.052100 0
M  V30 10 H 76.150800 56.461500 42.330400 0
M  V30 11 H 75.672600 57.457600 43.724800 0
M  V30 12 R 73.667600 53.737100 42.196800 0
M  V30 END ATOM
M  V30 BEGIN BOND
M  V30 1 1 2 1
M  V30 2 1 3 2
M  V30 3 1 4 3
M  V30 4 1 5 2
M  V30 5 1 6 5
M  V30 6 1 7 2
M  V30 7 1 8 3
M  V30 8 1 9 3
M  V30 9 1 10 5
M  V30 10 1 11 5
M  V30 11 1 12 1
M  V30 END BOND
M  V30 END CTAB
M  END
$$$$
R-group 312 (8826-1)
     RDKit          3D

  0  0  0  0  0  0  0  0  0  0999 V3000
M  V30 BEGIN CTAB
M  V30 COUNTS 11 11 0 0 1
M  V30 BEGIN ATOM
M  V30 1 C 74.840300 55.207600 42.156300 0
M  V30 2 C 74.073200 56.415500 41.785800 0
M  V30 3 C 73.636000 56.914900 40.595500 0
M  V30 4 N 72.872300 58.057300 40.863900 0
M  V30 5 N 72.872200 58.303200 42.124700 0
M  V30 6 N 73.612400 57.330200 42.696000 0
M  V30 7 H 75.214100 55.349600 43.171300 0
M  V30 8 H 75.735600 55.154400 41.539900 0
M  V30 9 H 73.764800 56.542300 39.589600 0
M  V30 10 H 73.742200 57.282100 43.696200 0
M  V30 11 R 74.031900 53.888700 42.083000 0
M  V30 END ATOM
M  V30 BEGIN BOND
M  V30 1 1 2 1
M  V30 2 2 3 2
M  V30 3 1 4 3
M  V30 4 2 5 4
M  V30 5 1 6 2
M  V30 6 1 6 5
M  V30 7 1 7 1
M  V30 8 1 8 1
M  V30 9 1 9 3
M  V30 10 1 10 6
M  V30 11 1 11 1
M  V30 END BOND
M  V30 END CTAB
M  END
$$$$
R-group 313 (16457-1)
     RDKit          3D

  0  0  0  0  0  0  0  0  0  0999 V3000
M  V30 BEGIN CTAB
M  V30 COUNTS 15 14 0 0 1
M  V30 BEGIN ATOM
M  V30 1 O 74.282200 54.548000 41.526600 0
M  V30 2 C 73.468000 55.688700 41.520900 0
M  V30 3 C 72.480100 55.636900 40.318300 0
M  V30 4 C 72.872500 55.821200 42.931000 0
M  V30 5 C 74.417300 56.857600 41.357300 0
M  V30 6 F 73.671400 57.936400 41.581300 0
M  V30 7 F 74.912400 56.858200 40.124600 0
M  V30 8 F 75.418500 56.824800 42.238500 0
M  V30 9 H 72.014400 56.603600 40.124200 0
M  V30 10 H 72.995900 55.364100 39.396700 0
M  V30 11 H 71.680500 54.912600 40.487000 0
M  V30 12 H 72.472600 56.807100 43.150700 0
M  V30 13 H 72.061300 55.124600 43.111800 0
M  V30 14 H 73.653500 55.658600 43.676800 0
M  V30 15 R 73.690900 53.285500 41.767200 0
M  V30 END ATOM
M  V30 BEGIN BOND
M  V30 1 1 2 1
M  V30 2 1 3 2
M  V30 3 1 4 2
M  V30 4 1 5 2
M  V30 5 1 6 5
M  V30 6 1 7 5
M  V30 7 1 8 5
M  V30 8 1 9 3
M  V30 9 1 10 3
M  V30 10 1 11 3
M  V30 11 1 12 4
M  V30 12 1 13 4
M  V30 13 1 14 4
M  V30 14 1 15 1
M  V30 END BOND
M  V30 END CTAB
M  END
$$$$
R-group 314 (20707-2)
     RDKit          3D

  0  0  0  0  0  0  0  0  0  0999 V3000
M  V30 BEGIN CTAB
M  V30 COUNTS 21 20 0 0 1
M  V30 BEGIN ATOM
M  V30 1 C 76.899900 57.658300 41.239800 0
M  V30 2 O 75.858900 56.715000 41.323300 0
M  V30 3 C 75.652400 56.264100 42.644400 0
M  V30 4 C 74.284000 55.574200 42.799600 0 CFG=1
M  V30 5 C 73.132300 56.576100 42.581200 0
M  V30 6 C 72.904400 57.170200 41.151300 0
M  V30 7 C 73.038100 57.717000 43.585400 0
M  V30 8 H 77.068900 58.040900 40.233000 0
M  V30 9 H 77.791900 57.258200 41.658300 0
M  V30 10 H 76.872300 58.459100 41.941200 0
M  V30 11 H 76.471800 55.658000 42.986500 0
M  V30 12 H 75.696800 57.114200 43.321500 0
M  V30 13 H 74.234400 55.387100 43.869400 0
M  V30 14 H 72.332600 55.933700 42.924800 0
M  V30 15 H 73.803500 57.589600 40.705500 0
M  V30 16 H 72.476200 56.458200 40.452900 0
M  V30 17 H 72.202300 58.005900 41.161700 0
M  V30 18 H 73.979500 58.236100 43.723200 0
M  V30 19 H 72.308700 58.457800 43.271400 0
M  V30 20 H 72.682300 57.324600 44.524500 0
M  V30 21 R 74.038900 54.147300 42.146000 0
M  V30 END ATOM
M  V30 BEGIN BOND
M  V30 1 1 2 1
M  V30 2 1 3 2
M  V30 3 1 4 3
M  V30 4 1 5 4
M  V30 5 1 6 5
M  V30 6 1 7 5
M  V30 7 1 8 1
M  V30 8 1 9 1
M  V30 9 1 10 1
M  V30 10 1 11 3
M  V30 11 1 12 3
M  V30 12 1 4 13 CFG=1
M  V30 13 1 14 5
M  V30 14 1 15 6
M  V30 15 1 16 6
M  V30 16 1 17 6
M  V30 17 1 18 7
M  V30 18 1 19 7
M  V30 19 1 20 7
M  V30 20 1 21 4
M  V30 END BOND
M  V30 END CTAB
M  END
$$$$
R-group 315 (10828-1)
     RDKit          3D

  0  0  0  0  0  0  0  0  0  0999 V3000
M  V30 BEGIN CTAB
M  V30 COUNTS 10 10 0 0 1
M  V30 BEGIN ATOM
M  V30 1 C 74.150200 55.013900 42.047700 0
M  V30 2 N 73.672200 55.987100 42.802400 0
M  V30 3 C 73.892000 57.180600 42.259900 0
M  V30 4 C 73.018200 58.347500 42.585800 0
M  V30 5 N 74.838100 57.224200 41.324800 0
M  V30 6 S 75.272200 55.677900 40.924600 0
M  V30 7 H 72.072300 58.139100 42.120200 0
M  V30 8 H 72.873600 58.457700 43.659900 0
M  V30 9 H 73.374000 59.258100 42.124700 0
M  V30 10 R 73.704500 53.572300 42.093300 0
M  V30 END ATOM
M  V30 BEGIN BOND
M  V30 1 2 2 1
M  V30 2 1 3 2
M  V30 3 1 4 3
M  V30 4 2 5 3
M  V30 5 1 6 1
M  V30 6 1 6 5
M  V30 7 1 7 4
M  V30 8 1 8 4
M  V30 9 1 9 4
M  V30 10 1 10 1
M  V30 END BOND
M  V30 END CTAB
M  END
$$$$
R-group 316 (21338-1)
     RDKit          3D

  0  0  0  0  0  0  0  0  0  0999 V3000
M  V30 BEGIN CTAB
M  V30 COUNTS 13 13 0 0 1
M  V30 BEGIN ATOM
M  V30 1 N 72.493200 53.733200 42.201900 0
M  V30 2 C 73.162900 54.929300 42.707100 0
M  V30 3 C 73.836300 55.802500 41.746000 0
M  V30 4 C 73.297000 56.153600 40.538200 0
M  V30 5 S 74.472200 56.858200 39.584600 0
M  V30 6 C 75.611600 56.852700 40.927300 0
M  V30 7 N 75.129000 56.250000 42.001500 0
M  V30 8 H 71.932400 53.359600 42.958500 0
M  V30 9 H 72.410600 55.530800 43.221800 0
M  V30 10 H 73.891300 54.692600 43.473400 0
M  V30 11 H 72.329600 55.899900 40.124300 0
M  V30 12 H 76.614700 57.250900 40.909500 0
M  V30 13 R 73.341800 52.714800 41.625700 0
M  V30 END ATOM
M  V30 BEGIN BOND
M  V30 1 1 2 1
M  V30 2 1 3 2
M  V30 3 2 4 3
M  V30 4 1 5 4
M  V30 5 1 6 5
M  V30 6 1 7 3
M  V30 7 2 7 6
M  V30 8 1 8 1
M  V30 9 1 9 2
M  V30 10 1 10 2
M  V30 11 1 11 4
M  V30 12 1 12 6
M  V30 13 1 13 1
M  V30 END BOND
M  V30 END CTAB
M  END
$$$$
R-group 317 (10913-2)
     RDKit          3D

  0  0  0  0  0  0  0  0  0  0999 V3000
M  V30 BEGIN CTAB
M  V30 COUNTS 18 17 0 0 1
M  V30 BEGIN ATOM
M  V30 1 C 74.250500 56.321700 39.135200 0
M  V30 2 O 73.272300 56.390300 40.158100 0
M  V30 3 C 73.656700 57.196400 41.260200 0 CFG=1
M  V30 4 C 72.850800 58.498500 41.194300 0
M  V30 5 C 73.543000 56.424900 42.592800 0
M  V30 6 C 74.475900 55.198500 42.678500 0
M  V30 7 H 73.969300 55.563800 38.404600 0
M  V30 8 H 74.362400 57.265600 38.618400 0
M  V30 9 H 75.226100 56.066000 39.545400 0
M  V30 10 H 74.705900 57.484600 41.167700 0
M  V30 11 H 73.272100 59.257600 41.844300 0
M  V30 12 H 72.871700 58.858700 40.163800 0
M  V30 13 H 71.813200 58.458000 41.504000 0
M  V30 14 H 72.534500 56.174200 42.924600 0
M  V30 15 H 73.883200 57.137500 43.341100 0
M  V30 16 H 74.894700 55.245000 43.684100 0
M  V30 17 H 75.339600 55.336500 42.028000 0
M  V30 18 R 73.870600 53.772200 42.475400 0
M  V30 END ATOM
M  V30 BEGIN BOND
M  V30 1 1 2 1
M  V30 2 1 3 2
M  V30 3 1 4 3
M  V30 4 1 5 3
M  V30 5 1 6 5
M  V30 6 1 7 1
M  V30 7 1 8 1
M  V30 8 1 9 1
M  V30 9 1 3 10 CFG=3
M  V30 10 1 11 4
M  V30 11 1 12 4
M  V30 12 1 13 4
M  V30 13 1 14 5
M  V30 14 1 15 5
M  V30 15 1 16 6
M  V30 16 1 17 6
M  V30 17 1 18 6
M  V30 END BOND
M  V30 END CTAB
M  END
$$$$
R-group 318 (11921-7)
     RDKit          3D

  0  0  0  0  0  0  0  0  0  0999 V3000
M  V30 BEGIN CTAB
M  V30 COUNTS 25 26 0 0 1
M  V30 BEGIN ATOM
M  V30 1 C 73.596900 55.006800 41.418800 0 CFG=2
M  V30 2 C 73.273600 55.590700 42.757200 0 CFG=2
M  V30 3 C 73.671900 56.934400 43.324300 0
M  V30 4 C 74.390100 55.681200 43.724700 0 CFG=2
M  V30 5 C 75.850700 55.656100 43.460100 0
M  V30 6 C 72.775600 55.764700 40.369800 0 CFG=1
M  V30 7 C 72.665000 57.290400 40.440000 0
M  V30 8 C 73.392500 56.674600 39.329600 0 CFG=1
M  V30 9 C 74.835300 57.026000 39.266200 0
M  V30 10 H 74.634700 55.173900 41.180300 0
M  V30 11 H 72.301400 55.264600 43.123600 0
M  V30 12 H 74.312300 57.632600 42.790000 0
M  V30 13 H 72.983400 57.383800 44.036400 0
M  V30 14 H 74.195600 55.257900 44.700000 0
M  V30 15 H 76.118900 55.889900 42.430500 0
M  V30 16 H 76.378900 56.335700 44.124200 0
M  V30 17 H 76.072700 54.635600 43.725400 0
M  V30 18 H 71.822800 55.295700 40.126800 0
M  V30 19 H 71.776600 57.789500 40.124700 0
M  V30 20 H 73.299500 57.925200 41.043300 0
M  V30 21 H 72.874300 56.857700 38.398300 0
M  V30 22 H 75.382900 56.905700 40.199800 0
M  V30 23 H 75.271000 56.458000 38.468800 0
M  V30 24 H 74.875200 58.055700 38.941400 0
M  V30 25 R 73.407600 53.447600 41.485000 0
M  V30 END ATOM
M  V30 BEGIN BOND
M  V30 1 1 2 1
M  V30 2 1 3 2
M  V30 3 1 4 2
M  V30 4 1 4 3
M  V30 5 1 5 4
M  V30 6 1 6 1
M  V30 7 1 7 6
M  V30 8 1 8 6
M  V30 9 1 8 7
M  V30 10 1 9 8
M  V30 11 1 1 10 CFG=3
M  V30 12 1 2 11 CFG=1
M  V30 13 1 12 3
M  V30 14 1 13 3
M  V30 15 1 4 14 CFG=1
M  V30 16 1 15 5
M  V30 17 1 16 5
M  V30 18 1 17 5
M  V30 19 1 6 18 CFG=3
M  V30 20 1 19 7
M  V30 21 1 20 7
M  V30 22 1 8 21 CFG=3
M  V30 23 1 22 9
M  V30 24 1 23 9
M  V30 25 1 24 9
M  V30 26 1 25 1
M  V30 END BOND
M  V30 END CTAB
M  END
$$$$
R-group 319 (19595-2)
     RDKit          3D

  0  0  0  0  0  0  0  0  0  0999 V3000
M  V30 BEGIN CTAB
M  V30 COUNTS 16 15 0 0 1
M  V30 BEGIN ATOM
M  V30 1 C 72.495700 58.067000 40.921800 0
M  V30 2 C 73.136500 57.389300 42.143400 0
M  V30 3 C 73.887200 56.117400 41.713900 0 CFG=2
M  V30 4 O 73.343100 54.918700 42.281100 0
M  V30 5 C 75.311300 56.309700 42.144400 0
M  V30 6 N 76.094200 56.857700 41.227900 0
M  V30 7 O 75.672100 56.056600 43.288800 0
M  V30 8 H 71.796700 58.858800 41.206900 0
M  V30 9 H 73.271500 58.497700 40.299300 0
M  V30 10 H 72.009200 57.343700 40.268500 0
M  V30 11 H 72.472200 57.132900 42.957800 0
M  V30 12 H 73.794300 58.139500 42.592300 0
M  V30 13 H 73.847800 56.091800 40.629200 0
M  V30 14 H 75.731900 57.077400 40.311400 0
M  V30 15 H 77.050200 57.073700 41.467200 0
M  V30 16 R 73.630800 53.634000 41.708300 0
M  V30 END ATOM
M  V30 BEGIN BOND
M  V30 1 1 2 1
M  V30 2 1 3 2
M  V30 3 1 4 3
M  V30 4 1 5 3
M  V30 5 1 6 5
M  V30 6 2 7 5
M  V30 7 1 8 1
M  V30 8 1 9 1
M  V30 9 1 10 1
M  V30 10 1 11 2
M  V30 11 1 12 2
M  V30 12 1 3 13 CFG=3
M  V30 13 1 14 6
M  V30 14 1 15 6
M  V30 15 1 16 4
M  V30 END BOND
M  V30 END CTAB
M  END
$$$$
R-group 320 (24561-1)
     RDKit          3D

  0  0  0  0  0  0  0  0  0  0999 V3000
M  V30 BEGIN CTAB
M  V30 COUNTS 16 15 0 0 1
M  V30 BEGIN ATOM
M  V30 1 O 74.119100 54.740600 42.506700 0
M  V30 2 C 73.154200 55.678300 42.924700 0
M  V30 3 C 73.272200 56.858900 41.985000 0
M  V30 4 C 74.686800 57.404500 41.822200 0 CFG=1
M  V30 5 C 75.689100 57.257900 42.978700 0
M  V30 6 O 75.272300 56.857100 40.659600 0
M  V30 7 H 72.148300 55.258000 42.924800 0
M  V30 8 H 73.355000 56.058000 43.928200 0
M  V30 9 H 72.872300 56.604600 41.002000 0
M  V30 10 H 72.629900 57.653900 42.368200 0
M  V30 11 H 74.472300 58.457900 41.724500 0
M  V30 12 H 75.352800 57.836400 43.830900 0
M  V30 13 H 75.854500 56.228600 43.293000 0
M  V30 14 H 76.663300 57.658000 42.699100 0
M  V30 15 H 76.135400 57.226700 40.549600 0
M  V30 16 R 73.665700 53.423400 42.316400 0
M  V30 END ATOM
M  V30 BEGIN BOND
M  V30 1 1 2 1
M  V30 2 1 3 2
M  V30 3 1 4 3
M  V30 4 1 5 4
M  V30 5 1 6 4
M  V30 6 1 7 2
M  V30 7 1 8 2
M  V30 8 1 9 3
M  V30 9 1 10 3
M  V30 10 1 4 11 CFG=3
M  V30 11 1 12 5
M  V30 12 1 13 5
M  V30 13 1 14 5
M  V30 14 1 15 6
M  V30 15 1 16 1
M  V30 END BOND
M  V30 END CTAB
M  END
$$$$
R-group 321 (13171-1)
     RDKit          3D

  0  0  0  0  0  0  0  0  0  0999 V3000
M  V30 BEGIN CTAB
M  V30 COUNTS 14 13 0 0 1
M  V30 BEGIN ATOM
M  V30 1 S 73.898400 55.143900 41.294000 0
M  V30 2 O 73.672100 55.925300 42.520400 0
M  V30 3 O 75.205200 55.296300 40.643500 0
M  V30 4 C 72.583600 55.544200 39.999100 0
M  V30 5 C 71.169800 54.868200 40.122500 0
M  V30 6 C 70.462800 54.577400 38.795600 0
M  V30 7 F 69.383800 53.827900 39.020700 0
M  V30 8 F 70.064400 55.728000 38.257600 0
M  V30 9 F 71.271500 53.958300 37.943300 0
M  V30 10 H 72.485000 56.626600 39.972200 0
M  V30 11 H 73.036400 55.279900 39.042100 0
M  V30 12 H 71.121200 54.028100 40.811100 0
M  V30 13 H 70.472600 55.589600 40.523700 0
M  V30 14 R 73.606000 53.352300 41.690900 0
M  V30 END ATOM
M  V30 BEGIN BOND
M  V30 1 2 2 1
M  V30 2 2 3 1
M  V30 3 1 4 1
M  V30 4 1 5 4
M  V30 5 1 6 5
M  V30 6 1 7 6
M  V30 7 1 8 6
M  V30 8 1 9 6
M  V30 9 1 10 4
M  V30 10 1 11 4
M  V30 11 1 12 5
M  V30 12 1 13 5
M  V30 13 1 14 1
M  V30 END BOND
M  V30 END CTAB
M  END
$$$$
R-group 322 (39418-1)
     RDKit          3D

  0  0  0  0  0  0  0  0  0  0999 V3000
M  V30 BEGIN CTAB
M  V30 COUNTS 15 15 0 0 1
M  V30 BEGIN ATOM
M  V30 1 C 74.494400 56.885000 38.805800 0
M  V30 2 C 73.477600 56.084600 39.531700 0
M  V30 3 C 73.770100 56.024200 40.976800 0
M  V30 4 N 74.123400 57.183700 41.622200 0
M  V30 5 N 74.346100 57.023700 42.924600 0
M  V30 6 C 74.116500 55.745200 43.081200 0
M  V30 7 C 73.728000 55.036600 41.929000 0
M  V30 8 H 74.420300 56.711600 37.743300 0
M  V30 9 H 74.463700 57.932800 39.037000 0
M  V30 10 H 75.484900 56.498700 39.134700 0
M  V30 11 H 73.566400 55.163400 39.004900 0
M  V30 12 H 72.456900 56.396800 39.359100 0
M  V30 13 H 74.150000 55.399600 44.099800 0
M  V30 14 H 74.282600 58.084000 41.180000 0
M  V30 15 R 73.334500 53.580800 41.885300 0
M  V30 END ATOM
M  V30 BEGIN BOND
M  V30 1 1 2 1
M  V30 2 1 3 2
M  V30 3 1 4 3
M  V30 4 1 5 4
M  V30 5 2 6 5
M  V30 6 2 7 3
M  V30 7 1 7 6
M  V30 8 1 8 1
M  V30 9 1 9 1
M  V30 10 1 10 1
M  V30 11 1 11 2
M  V30 12 1 12 2
M  V30 13 1 13 6
M  V30 14 1 14 4
M  V30 15 1 15 7
M  V30 END BOND
M  V30 END CTAB
M  END
$$$$
R-group 323 (31446-1)
     RDKit          3D

  0  0  0  0  0  0  0  0  0  0999 V3000
M  V30 BEGIN CTAB
M  V30 COUNTS 18 18 0 0 1
M  V30 BEGIN ATOM
M  V30 1 C 72.572800 58.673700 42.297300 0
M  V30 2 C 73.577800 57.988200 41.368700 0
M  V30 3 N 74.024100 56.689500 41.726700 0
M  V30 4 C 73.671900 55.534200 41.096300 0
M  V30 5 C 73.994300 54.555500 41.985600 0
M  V30 6 N 74.872700 55.065200 42.924100 0
M  V30 7 C 74.940300 56.336800 42.638400 0
M  V30 8 C 75.872500 57.257700 43.326700 0
M  V30 9 H 72.621100 59.745800 42.124900 0
M  V30 10 H 71.536700 58.458300 42.124600 0
M  V30 11 H 72.798700 58.457800 43.340900 0
M  V30 12 H 74.472400 58.458200 41.614300 0
M  V30 13 H 73.356800 58.064100 40.303100 0
M  V30 14 H 73.028300 55.526200 40.229400 0
M  V30 15 H 76.410600 56.739800 44.120600 0
M  V30 16 H 76.597700 57.657400 42.619000 0
M  V30 17 H 75.298800 58.058000 43.767800 0
M  V30 18 R 73.570200 53.139200 41.988200 0
M  V30 END ATOM
M  V30 BEGIN BOND
M  V30 1 1 2 1
M  V30 2 1 3 2
M  V30 3 1 4 3
M  V30 4 2 5 4
M  V30 5 1 6 5
M  V30 6 1 7 3
M  V30 7 2 7 6
M  V30 8 1 8 7
M  V30 9 1 9 1
M  V30 10 1 10 1
M  V30 11 1 11 1
M  V30 12 1 12 2
M  V30 13 1 13 2
M  V30 14 1 14 4
M  V30 15 1 15 8
M  V30 16 1 16 8
M  V30 17 1 17 8
M  V30 18 1 18 5
M  V30 END BOND
M  V30 END CTAB
M  END
$$$$
R-group 324 (9445-1)
     RDKit          3D

  0  0  0  0  0  0  0  0  0  0999 V3000
M  V30 BEGIN CTAB
M  V30 COUNTS 16 16 0 0 1
M  V30 BEGIN ATOM
M  V30 1 O 73.201900 54.453200 42.342500 0
M  V30 2 C 74.215900 55.367200 42.279600 0
M  V30 3 C 74.476800 56.267400 41.212400 0
M  V30 4 C 73.666900 56.563800 39.975900 0
M  V30 5 N 75.635400 56.859700 41.367100 0
M  V30 6 N 75.975700 56.575800 42.629500 0
M  V30 7 C 75.171400 55.641800 43.225000 0
M  V30 8 C 75.438500 55.022000 44.559500 0
M  V30 9 H 72.757500 55.964900 39.942000 0
M  V30 10 H 73.363100 57.609300 39.953000 0
M  V30 11 H 74.240800 56.368900 39.074100 0
M  V30 12 H 74.547000 54.526300 44.928500 0
M  V30 13 H 76.276500 54.330000 44.512200 0
M  V30 14 H 75.672200 55.658000 45.388100 0
M  V30 15 H 76.801900 56.983400 43.059100 0
M  V30 16 R 73.455100 53.192900 41.753700 0
M  V30 END ATOM
M  V30 BEGIN BOND
M  V30 1 1 2 1
M  V30 2 1 3 2
M  V30 3 1 4 3
M  V30 4 2 5 3
M  V30 5 1 6 5
M  V30 6 2 7 2
M  V30 7 1 7 6
M  V30 8 1 8 7
M  V30 9 1 9 4
M  V30 10 1 10 4
M  V30 11 1 11 4
M  V30 12 1 12 8
M  V30 13 1 13 8
M  V30 14 1 14 8
M  V30 15 1 15 6
M  V30 16 1 16 1
M  V30 END BOND
M  V30 END CTAB
M  END
$$$$
R-group 325 (1967-1)
     RDKit          3D

  0  0  0  0  0  0  0  0  0  0999 V3000
M  V30 BEGIN CTAB
M  V30 COUNTS 15 15 0 0 1
M  V30 BEGIN ATOM
M  V30 1 C 77.025800 57.741400 40.567500 0
M  V30 2 O 76.472200 56.457600 40.524500 0
M  V30 3 C 75.311300 56.155300 41.095700 0
M  V30 4 C 74.612900 57.050000 41.877400 0
M  V30 5 C 73.631200 56.596200 42.708200 0
M  V30 6 C 73.272300 55.267500 42.526100 0
M  V30 7 C 73.902600 54.462500 41.622900 0
M  V30 8 N 74.960300 54.883300 40.933800 0
M  V30 9 H 78.020500 57.682000 40.128000 0
M  V30 10 H 76.474500 58.456500 39.974200 0
M  V30 11 H 77.122600 58.057800 41.602500 0
M  V30 12 H 74.863000 58.053400 41.874300 0
M  V30 13 H 73.083000 57.259700 43.363300 0
M  V30 14 H 72.403500 54.904600 43.045800 0
M  V30 15 R 73.552700 53.017400 41.635800 0
M  V30 END ATOM
M  V30 BEGIN BOND
M  V30 1 1 2 1
M  V30 2 1 3 2
M  V30 3 2 4 3
M  V30 4 1 5 4
M  V30 5 2 6 5
M  V30 6 1 7 6
M  V30 7 1 8 3
M  V30 8 2 8 7
M  V30 9 1 9 1
M  V30 10 1 10 1
M  V30 11 1 11 1
M  V30 12 1 12 4
M  V30 13 1 13 5
M  V30 14 1 14 6
M  V30 15 1 15 7
M  V30 END BOND
M  V30 END CTAB
M  END
$$$$
R-group 326 (16781-2)
     RDKit          3D

  0  0  0  0  0  0  0  0  0  0999 V3000
M  V30 BEGIN CTAB
M  V30 COUNTS 20 20 0 0 1
M  V30 BEGIN ATOM
M  V30 1 O 73.750700 54.499900 41.843000 0
M  V30 2 C 75.059400 54.907200 41.455200 0
M  V30 3 C 75.065000 56.397100 41.607200 0 CFG=2
M  V30 4 C 74.727300 56.755400 43.065600 0
M  V30 5 N 73.623900 57.657800 42.924600 0
M  V30 6 C 73.272200 57.958200 41.703300 0
M  V30 7 O 72.468300 58.856900 41.445700 0
M  V30 8 C 74.040300 57.114900 40.683400 0 CFG=2
M  V30 9 C 73.100100 56.306800 39.758200 0
M  V30 10 H 75.810900 54.513900 42.126100 0
M  V30 11 H 75.350700 54.653500 40.446000 0
M  V30 12 H 76.063800 56.772900 41.382000 0
M  V30 13 H 74.385000 55.896900 43.646300 0
M  V30 14 H 75.530300 57.210900 43.665500 0
M  V30 15 H 74.635400 57.657400 39.967800 0
M  V30 16 H 72.532600 56.977700 39.115100 0
M  V30 17 H 73.667500 55.645500 39.104300 0
M  V30 18 H 72.380400 55.702400 40.301200 0
M  V30 19 H 73.222400 58.116500 43.725400 0
M  V30 20 R 73.472700 53.125600 41.895900 0
M  V30 END ATOM
M  V30 BEGIN BOND
M  V30 1 1 2 1
M  V30 2 1 3 2
M  V30 3 1 4 3
M  V30 4 1 5 4
M  V30 5 1 6 5
M  V30 6 2 7 6
M  V30 7 1 8 3
M  V30 8 1 8 6
M  V30 9 1 9 8
M  V30 10 1 10 2
M  V30 11 1 11 2
M  V30 12 1 3 12 CFG=3
M  V30 13 1 13 4
M  V30 14 1 14 4
M  V30 15 1 8 15 CFG=3
M  V30 16 1 16 9
M  V30 17 1 17 9
M  V30 18 1 18 9
M  V30 19 1 19 5
M  V30 20 1 20 1
M  V30 END BOND
M  V30 END CTAB
M  END
$$$$
R-group 327 (8822-1)
     RDKit          3D

  0  0  0  0  0  0  0  0  0  0999 V3000
M  V30 BEGIN CTAB
M  V30 COUNTS 14 14 0 0 1
M  V30 BEGIN ATOM
M  V30 1 C 73.795100 55.081800 42.924700 0
M  V30 2 C 74.377700 55.980900 41.916400 0
M  V30 3 N 75.655500 56.454600 41.881700 0
M  V30 4 C 75.672300 56.844600 40.613800 0
M  V30 5 N 74.524600 56.606000 39.968000 0
M  V30 6 C 74.090300 56.568400 38.601100 0
M  V30 7 N 73.639900 56.235400 40.860900 0
M  V30 8 H 72.811800 55.491800 43.160900 0
M  V30 9 H 74.374800 55.183500 43.841600 0
M  V30 10 H 76.570500 57.192100 40.124900 0
M  V30 11 H 74.871900 56.858100 37.910800 0
M  V30 12 H 73.781500 55.552800 38.350700 0
M  V30 13 H 73.216800 57.215500 38.524700 0
M  V30 14 R 73.626700 53.586900 42.479200 0
M  V30 END ATOM
M  V30 BEGIN BOND
M  V30 1 1 2 1
M  V30 2 1 3 2
M  V30 3 2 4 3
M  V30 4 1 5 4
M  V30 5 1 6 5
M  V30 6 2 7 2
M  V30 7 1 7 5
M  V30 8 1 8 1
M  V30 9 1 9 1
M  V30 10 1 10 4
M  V30 11 1 11 6
M  V30 12 1 12 6
M  V30 13 1 13 6
M  V30 14 1 14 1
M  V30 END BOND
M  V30 END CTAB
M  END
$$$$
R-group 328 (43046-2)
     RDKit          3D

  0  0  0  0  0  0  0  0  0  0999 V3000
M  V30 BEGIN CTAB
M  V30 COUNTS 19 19 0 0 1
M  V30 BEGIN ATOM
M  V30 1 C 74.197700 54.795600 43.046600 0 CFG=2
M  V30 2 C 73.306800 55.950400 42.779500 0
M  V30 3 C 74.557600 56.691900 42.466600 0 CFG=2
M  V30 4 C 74.579600 57.474000 41.188100 0
M  V30 5 C 73.272400 58.294700 40.997000 0
M  V30 6 C 74.829500 56.653500 39.917200 0
M  V30 7 O 75.272300 55.445400 42.340600 0
M  V30 8 H 74.471100 54.797200 44.105700 0
M  V30 9 H 72.872300 55.764500 41.825800 0
M  V30 10 H 72.666300 56.322200 43.581000 0
M  V30 11 H 74.909000 57.265700 43.324700 0
M  V30 12 H 75.479200 58.054100 41.324600 0
M  V30 13 H 72.395200 57.660300 40.938500 0
M  V30 14 H 73.117500 59.007600 41.806800 0
M  V30 15 H 73.272200 58.826200 40.047500 0
M  V30 16 H 74.047300 55.920600 39.737000 0
M  V30 17 H 74.871300 57.299800 39.041300 0
M  V30 18 H 75.783600 56.139900 39.983200 0
M  V30 19 R 73.795200 53.424100 42.481200 0
M  V30 END ATOM
M  V30 BEGIN BOND
M  V30 1 1 2 1
M  V30 2 1 3 2
M  V30 3 1 4 3
M  V30 4 1 5 4
M  V30 5 1 6 4
M  V30 6 1 7 1
M  V30 7 1 7 3
M  V30 8 1 1 8 CFG=1
M  V30 9 1 9 2
M  V30 10 1 10 2
M  V30 11 1 3 11 CFG=1
M  V30 12 1 12 4
M  V30 13 1 13 5
M  V30 14 1 14 5
M  V30 15 1 15 5
M  V30 16 1 16 6
M  V30 17 1 17 6
M  V30 18 1 18 6
M  V30 19 1 19 1
M  V30 END BOND
M  V30 END CTAB
M  END
$$$$
R-group 329 (1124-1)
     RDKit          3D

  0  0  0  0  0  0  0  0  0  0999 V3000
M  V30 BEGIN CTAB
M  V30 COUNTS 14 14 0 0 1
M  V30 BEGIN ATOM
M  V30 1 C 72.583600 58.723200 42.260000 0
M  V30 2 C 73.514000 58.040200 41.259900 0
M  V30 3 C 73.916800 56.679900 41.622500 0
M  V30 4 C 73.668200 55.491800 40.929500 0
M  V30 5 C 73.939000 54.574200 41.895300 0
M  V30 6 O 74.621800 55.127100 42.923500 0
M  V30 7 N 74.659600 56.492900 42.686400 0
M  V30 8 H 72.580600 59.800300 42.122200 0
M  V30 9 H 71.553200 58.457600 42.125200 0
M  V30 10 H 72.869600 58.458200 43.281500 0
M  V30 11 H 74.473400 58.457800 41.325200 0
M  V30 12 H 73.162000 58.122600 40.234100 0
M  V30 13 H 73.148700 55.349800 39.990600 0
M  V30 14 R 73.605200 53.145600 41.984100 0
M  V30 END ATOM
M  V30 BEGIN BOND
M  V30 1 1 2 1
M  V30 2 1 3 2
M  V30 3 1 4 3
M  V30 4 2 5 4
M  V30 5 1 6 5
M  V30 6 2 7 3
M  V30 7 1 7 6
M  V30 8 1 8 1
M  V30 9 1 9 1
M  V30 10 1 10 1
M  V30 11 1 11 2
M  V30 12 1 12 2
M  V30 13 1 13 4
M  V30 14 1 14 5
M  V30 END BOND
M  V30 END CTAB
M  END
$$$$
R-group 330 (8916-1)
     RDKit          3D

  0  0  0  0  0  0  0  0  0  0999 V3000
M  V30 BEGIN CTAB
M  V30 COUNTS 17 17 0 0 1
M  V30 BEGIN ATOM
M  V30 1 C 73.666800 54.835600 42.351400 0
M  V30 2 C 75.047900 55.449700 42.221400 0
M  V30 3 N 74.606600 55.914700 40.907000 0
M  V30 4 C 75.002300 57.257900 40.558600 0
M  V30 5 C 76.505300 57.250700 40.480700 0
M  V30 6 F 76.872300 57.270500 41.724400 0
M  V30 7 C 73.270400 55.946800 41.377100 0
M  V30 8 H 73.274400 55.105700 43.324600 0
M  V30 9 H 75.205400 56.272400 42.926900 0
M  V30 10 H 75.886900 54.768900 42.123500 0
M  V30 11 H 74.555800 57.531100 39.600400 0
M  V30 12 H 74.680700 57.970800 41.324800 0
M  V30 13 H 76.890300 56.308900 40.124800 0
M  V30 14 H 76.947800 58.109200 39.973600 0
M  V30 15 H 72.476200 55.730600 40.625700 0
M  V30 16 H 73.047800 56.875400 41.913800 0
M  V30 17 R 73.455000 53.344700 42.060900 0
M  V30 END ATOM
M  V30 BEGIN BOND
M  V30 1 1 2 1
M  V30 2 1 3 2
M  V30 3 1 4 3
M  V30 4 1 5 4
M  V30 5 1 6 5
M  V30 6 1 7 1
M  V30 7 1 7 3
M  V30 8 1 8 1
M  V30 9 1 9 2
M  V30 10 1 10 2
M  V30 11 1 11 4
M  V30 12 1 12 4
M  V30 13 1 13 5
M  V30 14 1 14 5
M  V30 15 1 15 7
M  V30 16 1 16 7
M  V30 17 1 17 1
M  V30 END BOND
M  V30 END CTAB
M  END
$$$$
R-group 331 (3120-1)
     RDKit          3D

  0  0  0  0  0  0  0  0  0  0999 V3000
M  V30 BEGIN CTAB
M  V30 COUNTS 14 14 0 0 1
M  V30 BEGIN ATOM
M  V30 1 N 72.700200 53.979200 42.524700 0
M  V30 2 C 73.503000 55.138600 42.923900 0
M  V30 3 C 74.168500 55.928300 41.881100 0
M  V30 4 C 75.524100 56.345300 41.832000 0
M  V30 5 C 75.824400 56.858000 40.601500 0
M  V30 6 S 74.451000 56.858000 39.558200 0
M  V30 7 C 73.479100 56.260800 40.761800 0
M  V30 8 H 72.253100 53.694000 43.389800 0
M  V30 9 H 72.791200 55.812600 43.402400 0
M  V30 10 H 74.218700 54.893300 43.707500 0
M  V30 11 H 76.234000 56.173300 42.629500 0
M  V30 12 H 76.757200 57.159600 40.133200 0
M  V30 13 H 72.467900 56.029100 40.518100 0
M  V30 14 R 73.378100 52.882400 41.865700 0
M  V30 END ATOM
M  V30 BEGIN BOND
M  V30 1 1 2 1
M  V30 2 1 3 2
M  V30 3 1 4 3
M  V30 4 2 5 4
M  V30 5 1 6 5
M  V30 6 2 7 3
M  V30 7 1 7 6
M  V30 8 1 8 1
M  V30 9 1 9 2
M  V30 10 1 10 2
M  V30 11 1 11 4
M  V30 12 1 12 5
M  V30 13 1 13 7
M  V30 14 1 14 1
M  V30 END BOND
M  V30 END CTAB
M  END
$$$$
R-group 332 (21532-1)
     RDKit          3D

  0  0  0  0  0  0  0  0  0  0999 V3000
M  V30 BEGIN CTAB
M  V30 COUNTS 14 13 0 0 1
M  V30 BEGIN ATOM
M  V30 1 N 73.281600 54.392100 42.124500 0
M  V30 2 C 74.246200 55.239200 41.805700 0
M  V30 3 O 75.272400 54.910100 41.245600 0
M  V30 4 N 73.944800 56.503200 42.042100 0
M  V30 5 C 74.550900 57.510500 41.205000 0
M  V30 6 C 73.908100 57.471000 39.784300 0
M  V30 7 F 73.913000 56.257200 39.233400 0
M  V30 8 H 74.434500 58.456700 41.724000 0
M  V30 9 H 75.631300 57.362900 41.134000 0
M  V30 10 H 72.876900 57.811300 39.798600 0
M  V30 11 H 74.465300 58.049000 39.044700 0
M  V30 12 H 72.485700 54.742800 42.641300 0
M  V30 13 H 73.132800 56.744500 42.582300 0
M  V30 14 R 73.362500 52.959900 41.953000 0
M  V30 END ATOM
M  V30 BEGIN BOND
M  V30 1 1 2 1
M  V30 2 2 3 2
M  V30 3 1 4 2
M  V30 4 1 5 4
M  V30 5 1 6 5
M  V30 6 1 7 6
M  V30 7 1 8 5
M  V30 8 1 9 5
M  V30 9 1 10 6
M  V30 10 1 11 6
M  V30 11 1 12 1
M  V30 12 1 13 4
M  V30 13 1 14 1
M  V30 END BOND
M  V30 END CTAB
M  END
$$$$
R-group 333 (3058-1)
     RDKit          3D

  0  0  0  0  0  0  0  0  0  0999 V3000
M  V30 BEGIN CTAB
M  V30 COUNTS 18 18 0 0 1
M  V30 BEGIN ATOM
M  V30 1 C 74.381700 54.946700 42.669900 0
M  V30 2 C 73.373100 56.038800 42.364000 0
M  V30 3 C 73.647400 57.424600 42.937400 0
M  V30 4 C 72.872400 58.365500 42.018500 0
M  V30 5 C 72.914800 57.738300 40.627900 0
M  V30 6 C 73.257600 56.282400 40.844600 0
M  V30 7 H 74.633900 55.049000 43.725800 0
M  V30 8 H 75.315700 55.119500 42.133600 0
M  V30 9 H 72.472500 55.718600 42.889600 0
M  V30 10 H 73.272500 57.514800 43.957600 0
M  V30 11 H 74.713600 57.651700 42.920900 0
M  V30 12 H 71.842400 58.459700 42.352600 0
M  V30 13 H 73.272100 59.362200 42.028600 0
M  V30 14 H 71.955000 57.807400 40.125100 0
M  V30 15 H 73.667100 58.178000 39.975800 0
M  V30 16 H 74.190800 56.056400 40.328000 0
M  V30 17 H 72.472300 55.700600 40.377200 0
M  V30 18 R 73.837800 53.512200 42.406700 0
M  V30 END ATOM
M  V30 BEGIN BOND
M  V30 1 1 2 1
M  V30 2 1 3 2
M  V30 3 1 4 3
M  V30 4 1 5 4
M  V30 5 1 6 2
M  V30 6 1 6 5
M  V30 7 1 7 1
M  V30 8 1 8 1
M  V30 9 1 9 2
M  V30 10 1 10 3
M  V30 11 1 11 3
M  V30 12 1 12 4
M  V30 13 1 13 4
M  V30 14 1 14 5
M  V30 15 1 15 5
M  V30 16 1 16 6
M  V30 17 1 17 6
M  V30 18 1 18 1
M  V30 END BOND
M  V30 END CTAB
M  END
$$$$
R-group 334 (8727-1)
     RDKit          3D

  0  0  0  0  0  0  0  0  0  0999 V3000
M  V30 BEGIN CTAB
M  V30 COUNTS 18 17 0 0 1
M  V30 BEGIN ATOM
M  V30 1 C 73.633900 54.921100 42.583400 0
M  V30 2 C 75.084700 55.357900 42.352700 0
M  V30 3 O 75.382400 55.614500 40.994600 0
M  V30 4 C 75.130400 56.917800 40.516900 0
M  V30 5 C 76.353700 57.649200 41.069000 0
M  V30 6 C 73.763000 57.457000 40.923900 0
M  V30 7 H 72.922700 55.432800 41.974800 0
M  V30 8 H 73.435500 55.328100 43.559200 0
M  V30 9 H 75.328400 56.161100 43.017100 0
M  V30 10 H 75.729000 54.567500 42.675700 0
M  V30 11 H 75.175700 56.860900 39.421300 0
M  V30 12 H 76.477100 58.677300 40.808700 0
M  V30 13 H 76.368100 57.652000 42.156700 0
M  V30 14 H 77.271900 57.205900 40.707600 0
M  V30 15 H 73.622200 58.460000 40.648800 0
M  V30 16 H 72.936200 56.907700 40.459800 0
M  V30 17 H 73.640900 57.457600 42.012700 0
M  V30 18 R 73.314400 53.440500 42.399400 0
M  V30 END ATOM
M  V30 BEGIN BOND
M  V30 1 1 2 1
M  V30 2 1 3 2
M  V30 3 1 4 3
M  V30 4 1 5 4
M  V30 5 1 6 4
M  V30 6 1 7 1
M  V30 7 1 8 1
M  V30 8 1 9 2
M  V30 9 1 10 2
M  V30 10 1 11 4
M  V30 11 1 12 5
M  V30 12 1 13 5
M  V30 13 1 14 5
M  V30 14 1 15 6
M  V30 15 1 16 6
M  V30 16 1 17 6
M  V30 17 1 18 1
M  V30 END BOND
M  V30 END CTAB
M  END
$$$$
R-group 335 (13624-1)
     RDKit          3D

  0  0  0  0  0  0  0  0  0  0999 V3000
M  V30 BEGIN CTAB
M  V30 COUNTS 16 16 0 0 1
M  V30 BEGIN ATOM
M  V30 1 C 74.045700 55.117000 41.206300 0 CFG=2
M  V30 2 C 73.676500 55.664700 39.789600 0
M  V30 3 C 73.201200 55.892800 42.174100 0
M  V30 4 C 73.936400 56.379000 43.324700 0
M  V30 5 C 75.252200 56.383200 42.686700 0
M  V30 6 O 76.072100 57.069100 43.204500 0
M  V30 7 N 75.337500 55.635700 41.587400 0
M  V30 8 H 72.617600 55.516900 39.589800 0
M  V30 9 H 73.860200 56.737300 39.713900 0
M  V30 10 H 74.239300 55.234600 38.972400 0
M  V30 11 H 72.872200 56.816500 41.703800 0
M  V30 12 H 72.466200 55.259200 42.630200 0
M  V30 13 H 73.629900 57.377300 43.656900 0
M  V30 14 H 73.926200 55.657500 44.123600 0
M  V30 15 H 76.167800 55.553000 41.018000 0
M  V30 16 R 73.801700 53.572500 41.499500 0
M  V30 END ATOM
M  V30 BEGIN BOND
M  V30 1 1 2 1
M  V30 2 1 3 1
M  V30 3 1 4 3
M  V30 4 1 5 4
M  V30 5 2 6 5
M  V30 6 1 7 1
M  V30 7 1 7 5
M  V30 8 1 8 2
M  V30 9 1 9 2
M  V30 10 1 10 2
M  V30 11 1 11 3
M  V30 12 1 12 3
M  V30 13 1 13 4
M  V30 14 1 14 4
M  V30 15 1 15 7
M  V30 16 1 1 16 CFG=3
M  V30 END BOND
M  V30 END CTAB
M  END
$$$$
R-group 336 (10253-1)
     RDKit          3D

  0  0  0  0  0  0  0  0  0  0999 V3000
M  V30 BEGIN CTAB
M  V30 COUNTS 15 14 0 0 1
M  V30 BEGIN ATOM
M  V30 1 C 75.968100 55.741900 43.704600 0
M  V30 2 C 75.498400 56.452400 42.415900 0
M  V30 3 O 76.244000 57.234900 41.826600 0
M  V30 4 N 74.283900 56.125600 41.936100 0
M  V30 5 C 73.640200 56.941600 40.902200 0
M  V30 6 C 73.515900 54.999000 42.478200 0
M  V30 7 H 75.272100 55.657900 44.524700 0
M  V30 8 H 76.071800 54.692800 43.500000 0
M  V30 9 H 76.871700 56.152200 44.124900 0
M  V30 10 H 73.379800 57.921300 41.308900 0
M  V30 11 H 74.302400 57.086000 40.045600 0
M  V30 12 H 72.725200 56.487800 40.524800 0
M  V30 13 H 72.493100 55.258000 42.524200 0
M  V30 14 H 73.690000 54.920400 43.525000 0
M  V30 15 R 73.651900 53.624000 41.778100 0
M  V30 END ATOM
M  V30 BEGIN BOND
M  V30 1 1 2 1
M  V30 2 2 3 2
M  V30 3 1 4 2
M  V30 4 1 5 4
M  V30 5 1 6 4
M  V30 6 1 7 1
M  V30 7 1 8 1
M  V30 8 1 9 1
M  V30 9 1 10 5
M  V30 10 1 11 5
M  V30 11 1 12 5
M  V30 12 1 13 6
M  V30 13 1 14 6
M  V30 14 1 15 6
M  V30 END BOND
M  V30 END CTAB
M  END
$$$$
R-group 337 (41256-1)
     RDKit          3D

  0  0  0  0  0  0  0  0  0  0999 V3000
M  V30 BEGIN CTAB
M  V30 COUNTS 13 13 0 0 1
M  V30 BEGIN ATOM
M  V30 1 S 74.782100 55.446400 42.242300 0
M  V30 2 O 75.579000 55.658000 43.458200 0
M  V30 3 O 75.404400 55.700400 40.935800 0
M  V30 4 C 73.272200 56.456700 42.359800 0
M  V30 5 C 73.478000 57.816000 42.975500 0
M  V30 6 O 72.872200 58.458000 41.827000 0
M  V30 7 C 72.975900 57.240400 41.071400 0
M  V30 8 H 72.475500 55.957000 42.924700 0
M  V30 9 H 72.905700 57.970500 43.891000 0
M  V30 10 H 74.526300 58.058000 43.115400 0
M  V30 11 H 73.795100 57.321400 40.358600 0
M  V30 12 H 72.072200 56.975700 40.524700 0
M  V30 13 R 74.001800 53.753300 42.250200 0
M  V30 END ATOM
M  V30 BEGIN BOND
M  V30 1 2 2 1
M  V30 2 2 3 1
M  V30 3 1 4 1
M  V30 4 1 5 4
M  V30 5 1 6 5
M  V30 6 1 7 4
M  V30 7 1 7 6
M  V30 8 1 8 4
M  V30 9 1 9 5
M  V30 10 1 10 5
M  V30 11 1 11 7
M  V30 12 1 12 7
M  V30 13 1 13 1
M  V30 END BOND
M  V30 END CTAB
M  END
$$$$
R-group 338 (6249-1)
     RDKit          3D

  0  0  0  0  0  0  0  0  0  0999 V3000
M  V30 BEGIN CTAB
M  V30 COUNTS 16 15 0 0 1
M  V30 BEGIN ATOM
M  V30 1 O 73.696400 54.829000 42.422500 0
M  V30 2 C 73.297700 55.911400 41.596500 0
M  V30 3 C 74.502100 56.458000 40.843100 0
M  V30 4 O 74.426200 56.516400 39.618500 0
M  V30 5 N 75.594800 56.857900 41.523900 0
M  V30 6 C 76.745500 57.377500 40.797300 0
M  V30 7 C 75.638000 56.981700 42.979600 0
M  V30 8 H 72.552500 55.611300 40.860900 0
M  V30 9 H 72.872300 56.706900 42.210200 0
M  V30 10 H 76.472300 58.248800 40.203300 0
M  V30 11 H 77.561000 57.658000 41.453400 0
M  V30 12 H 77.120800 56.614000 40.124800 0
M  V30 13 H 75.718600 56.004200 43.456200 0
M  V30 14 H 76.472100 57.591800 43.324800 0
M  V30 15 H 74.733400 57.477100 43.328100 0
M  V30 16 R 73.617200 53.497700 41.917200 0
M  V30 END ATOM
M  V30 BEGIN BOND
M  V30 1 1 2 1
M  V30 2 1 3 2
M  V30 3 2 4 3
M  V30 4 1 5 3
M  V30 5 1 6 5
M  V30 6 1 7 5
M  V30 7 1 8 2
M  V30 8 1 9 2
M  V30 9 1 10 6
M  V30 10 1 11 6
M  V30 11 1 12 6
M  V30 12 1 13 7
M  V30 13 1 14 7
M  V30 14 1 15 7
M  V30 15 1 16 1
M  V30 END BOND
M  V30 END CTAB
M  END
$$$$
R-group 339 (24486-1)
     RDKit          3D

  0  0  0  0  0  0  0  0  0  0999 V3000
M  V30 BEGIN CTAB
M  V30 COUNTS 17 16 0 0 1
M  V30 BEGIN ATOM
M  V30 1 C 73.984700 57.117800 39.025600 0
M  V30 2 N 74.015900 56.678000 40.398300 0
M  V30 3 C 75.096900 56.673400 41.188800 0
M  V30 4 O 76.141000 57.257200 40.914100 0
M  V30 5 N 74.929700 55.997400 42.336000 0
M  V30 6 C 75.901100 56.191300 43.405600 0
M  V30 7 C 73.769800 55.175500 42.658600 0
M  V30 8 H 72.950400 57.255100 38.708800 0
M  V30 9 H 74.513200 58.057900 38.924800 0
M  V30 10 H 74.456900 56.385500 38.371900 0
M  V30 11 H 75.853700 57.209300 43.794000 0
M  V30 12 H 75.815600 55.486400 44.231600 0
M  V30 13 H 76.871700 56.058200 42.966500 0
M  V30 14 H 72.872400 55.711400 42.401800 0
M  V30 15 H 73.742300 55.203200 43.724700 0
M  V30 16 H 73.196000 56.204500 40.744900 0
M  V30 17 R 73.742000 53.721300 42.086400 0
M  V30 END ATOM
M  V30 BEGIN BOND
M  V30 1 1 2 1
M  V30 2 1 3 2
M  V30 3 2 4 3
M  V30 4 1 5 3
M  V30 5 1 6 5
M  V30 6 1 7 5
M  V30 7 1 8 1
M  V30 8 1 9 1
M  V30 9 1 10 1
M  V30 10 1 11 6
M  V30 11 1 12 6
M  V30 12 1 13 6
M  V30 13 1 14 7
M  V30 14 1 15 7
M  V30 15 1 16 2
M  V30 16 1 17 7
M  V30 END BOND
M  V30 END CTAB
M  END
$$$$
R-group 340 (29306-7)
     RDKit          3D

  0  0  0  0  0  0  0  0  0  0999 V3000
M  V30 BEGIN CTAB
M  V30 COUNTS 23 23 0 0 1
M  V30 BEGIN ATOM
M  V30 1 C 73.337900 54.640500 41.606000 0 CFG=2
M  V30 2 C 74.656300 55.094100 40.963700 0
M  V30 3 C 74.709900 56.611100 40.785700 0 CFG=2
M  V30 4 C 76.030000 57.010100 40.212100 0
M  V30 5 C 74.522500 57.312800 42.083500 0 CFG=2
M  V30 6 O 75.578300 56.865200 42.926900 0
M  V30 7 C 73.167200 56.937400 42.590400 0 CFG=2
M  V30 8 O 72.872100 57.663300 43.724700 0
M  V30 9 C 73.062000 55.453000 42.883500 0
M  V30 10 H 72.533400 54.895700 40.913200 0
M  V30 11 H 75.505500 54.766700 41.555000 0
M  V30 12 H 74.806000 54.647900 39.989800 0
M  V30 13 H 73.926400 56.917900 40.089000 0
M  V30 14 H 76.872400 56.649600 40.787900 0
M  V30 15 H 75.942100 56.457800 39.330900 0
M  V30 16 H 76.147700 58.057700 39.971400 0
M  V30 17 H 74.462800 58.370500 41.865900 0
M  V30 18 H 72.473200 57.275000 41.830900 0
M  V30 19 H 72.072900 55.249900 43.306100 0
M  V30 20 H 73.809900 55.238100 43.642400 0
M  V30 21 H 75.542100 57.378100 43.724700 0
M  V30 22 H 72.136000 57.252700 44.159600 0
M  V30 23 R 73.281500 53.115800 41.818200 0
M  V30 END ATOM
M  V30 BEGIN BOND
M  V30 1 1 2 1
M  V30 2 1 3 2
M  V30 3 1 4 3
M  V30 4 1 5 3
M  V30 5 1 6 5
M  V30 6 1 7 5
M  V30 7 1 8 7
M  V30 8 1 9 1
M  V30 9 1 9 7
M  V30 10 1 1 10 CFG=3
M  V30 11 1 11 2
M  V30 12 1 12 2
M  V30 13 1 3 13 CFG=3
M  V30 14 1 14 4
M  V30 15 1 15 4
M  V30 16 1 16 4
M  V30 17 1 5 17 CFG=3
M  V30 18 1 7 18 CFG=3
M  V30 19 1 19 9
M  V30 20 1 20 9
M  V30 21 1 21 6
M  V30 22 1 22 8
M  V30 23 1 23 1
M  V30 END BOND
M  V30 END CTAB
M  END
$$$$
R-group 341 (28161-1)
     RDKit          3D

  0  0  0  0  0  0  0  0  0  0999 V3000
M  V30 BEGIN CTAB
M  V30 COUNTS 15 14 0 0 1
M  V30 BEGIN ATOM
M  V30 1 C 73.598700 55.392900 41.869900 0 CFG=1
M  V30 2 C 73.081100 56.100800 43.130800 0
M  V30 3 C 73.203100 57.636000 43.118200 0
M  V30 4 O 72.875100 58.240600 41.893800 0
M  V30 5 C 75.039500 55.862200 41.633800 0
M  V30 6 F 75.684900 56.031300 42.787900 0
M  V30 7 F 75.631800 55.045500 40.852600 0
M  V30 8 F 75.111000 56.972300 40.933300 0
M  V30 9 H 73.032200 55.792200 41.028400 0
M  V30 10 H 72.068600 55.799000 43.346800 0
M  V30 11 H 73.672300 55.734500 43.965700 0
M  V30 12 H 72.560400 58.051600 43.882300 0
M  V30 13 H 74.214100 57.937400 43.366300 0
M  V30 14 H 73.155600 59.138400 41.883600 0
M  V30 15 R 73.378300 53.831500 41.847300 0
M  V30 END ATOM
M  V30 BEGIN BOND
M  V30 1 1 2 1
M  V30 2 1 3 2
M  V30 3 1 4 3
M  V30 4 1 5 1
M  V30 5 1 6 5
M  V30 6 1 7 5
M  V30 7 1 8 5
M  V30 8 1 1 9 CFG=3
M  V30 9 1 10 2
M  V30 10 1 11 2
M  V30 11 1 12 3
M  V30 12 1 13 3
M  V30 13 1 14 4
M  V30 14 1 15 1
M  V30 END BOND
M  V30 END CTAB
M  END
$$$$
R-group 342 (6706-1)
     RDKit          3D

  0  0  0  0  0  0  0  0  0  0999 V3000
M  V30 BEGIN CTAB
M  V30 COUNTS 15 14 0 0 1
M  V30 BEGIN ATOM
M  V30 1 C 74.635800 54.957000 42.148000 0
M  V30 2 C 74.368500 55.903600 43.322100 0
M  V30 3 C 73.028600 56.679400 43.301300 0
M  V30 4 C 72.971100 57.762700 42.186500 0
M  V30 5 C 73.109900 57.261900 40.805300 0
M  V30 6 N 73.236400 56.858100 39.724500 0
M  V30 7 H 74.571300 55.447300 41.194400 0
M  V30 8 H 75.695200 54.734200 42.169900 0
M  V30 9 H 75.179400 56.633300 43.335400 0
M  V30 10 H 74.470200 55.300600 44.226800 0
M  V30 11 H 72.877200 57.202600 44.242500 0
M  V30 12 H 72.194100 55.976700 43.324700 0
M  V30 13 H 73.801500 58.452200 42.332000 0
M  V30 14 H 72.076100 58.386500 42.250300 0
M  V30 15 R 73.860500 53.622600 42.146700 0
M  V30 END ATOM
M  V30 BEGIN BOND
M  V30 1 1 2 1
M  V30 2 1 3 2
M  V30 3 1 4 3
M  V30 4 1 5 4
M  V30 5 3 6 5
M  V30 6 1 7 1
M  V30 7 1 8 1
M  V30 8 1 9 2
M  V30 9 1 10 2
M  V30 10 1 11 3
M  V30 11 1 12 3
M  V30 12 1 13 4
M  V30 13 1 14 4
M  V30 14 1 15 1
M  V30 END BOND
M  V30 END CTAB
M  END
$$$$
R-group 343 (29570-1)
     RDKit          3D

  0  0  0  0  0  0  0  0  0  0999 V3000
M  V30 BEGIN CTAB
M  V30 COUNTS 22 22 0 0 1
M  V30 BEGIN ATOM
M  V30 1 C 73.318500 58.060200 39.376800 0
M  V30 2 C 72.459800 57.877200 40.627500 0
M  V30 3 C 72.814800 58.457600 42.020500 0
M  V30 4 C 73.682100 57.620200 42.955700 0
M  V30 5 N 74.564100 56.849400 42.152400 0
M  V30 6 C 75.634200 57.258000 41.443700 0
M  V30 7 N 76.072200 56.343900 40.627800 0
M  V30 8 N 75.272500 55.260500 40.783000 0
M  V30 9 C 74.418900 55.589600 41.710700 0
M  V30 10 N 73.437800 54.719700 42.129800 0
M  V30 11 H 72.872000 57.507500 38.551000 0
M  V30 12 H 73.396400 59.108400 39.088000 0
M  V30 13 H 74.315400 57.657900 39.415500 0
M  V30 14 H 72.114500 56.856400 40.542500 0
M  V30 15 H 71.575000 58.459100 40.524500 0
M  V30 16 H 71.900300 58.709700 42.557300 0
M  V30 17 H 73.271000 59.411800 41.855200 0
M  V30 18 H 73.065800 56.956600 43.561400 0
M  V30 19 H 74.272200 58.230300 43.635400 0
M  V30 20 H 76.072600 58.233300 41.324700 0
M  V30 21 H 72.942500 55.031400 42.959500 0
M  V30 22 R 73.333000 53.288300 41.943100 0
M  V30 END ATOM
M  V30 BEGIN BOND
M  V30 1 1 2 1
M  V30 2 1 3 2
M  V30 3 1 4 3
M  V30 4 1 5 4
M  V30 5 1 6 5
M  V30 6 2 7 6
M  V30 7 1 8 7
M  V30 8 1 9 5
M  V30 9 2 9 8
M  V30 10 1 10 9
M  V30 11 1 11 1
M  V30 12 1 12 1
M  V30 13 1 13 1
M  V30 14 1 14 2
M  V30 15 1 15 2
M  V30 16 1 16 3
M  V30 17 1 17 3
M  V30 18 1 18 4
M  V30 19 1 19 4
M  V30 20 1 20 6
M  V30 21 1 21 10
M  V30 22 1 22 10
M  V30 END BOND
M  V30 END CTAB
M  END
$$$$
R-group 344 (40929-1)
     RDKit          3D

  0  0  0  0  0  0  0  0  0  0999 V3000
M  V30 BEGIN CTAB
M  V30 COUNTS 17 17 0 0 1
M  V30 BEGIN ATOM
M  V30 1 N 73.272400 54.777500 42.125400 0
M  V30 2 S 74.302000 56.104400 42.479000 0
M  V30 3 O 73.453300 57.258100 42.797300 0
M  V30 4 O 75.342800 55.657900 43.408700 0
M  V30 5 C 75.038400 56.345500 40.828800 0
M  V30 6 C 74.086300 56.871200 39.767900 0
M  V30 7 C 76.485200 56.725100 40.922700 0
M  V30 8 C 76.071400 55.278000 40.666100 0
M  V30 9 H 74.590800 56.974100 38.811100 0
M  V30 10 H 73.249800 56.186700 39.637800 0
M  V30 11 H 73.671900 57.834900 40.059700 0
M  V30 12 H 76.918800 57.308500 40.121300 0
M  V30 13 H 76.873700 56.974200 41.910200 0
M  V30 14 H 76.029200 54.576200 41.483500 0
M  V30 15 H 76.233700 54.780500 39.725100 0
M  V30 16 H 72.489900 55.115400 41.583900 0
M  V30 17 R 73.565100 53.401600 41.755000 0
M  V30 END ATOM
M  V30 BEGIN BOND
M  V30 1 1 2 1
M  V30 2 2 3 2
M  V30 3 2 4 2
M  V30 4 1 5 2
M  V30 5 1 6 5
M  V30 6 1 7 5
M  V30 7 1 8 5
M  V30 8 1 8 7
M  V30 9 1 9 6
M  V30 10 1 10 6
M  V30 11 1 11 6
M  V30 12 1 12 7
M  V30 13 1 13 7
M  V30 14 1 14 8
M  V30 15 1 15 8
M  V30 16 1 16 1
M  V30 17 1 17 1
M  V30 END BOND
M  V30 END CTAB
M  END
$$$$
R-group 345 (7098-1)
     RDKit          3D

  0  0  0  0  0  0  0  0  0  0999 V3000
M  V30 BEGIN CTAB
M  V30 COUNTS 15 14 0 0 1
M  V30 BEGIN ATOM
M  V30 1 O 73.628400 54.787500 42.075800 0
M  V30 2 C 73.863000 55.663700 43.175500 0
M  V30 3 C 75.082100 56.528300 42.870900 0
M  V30 4 S 75.433800 56.645500 41.081200 0
M  V30 5 C 73.868400 57.259600 40.356300 0
M  V30 6 O 76.472100 57.657200 40.923800 0
M  V30 7 O 75.671000 55.315700 40.526800 0
M  V30 8 H 72.971900 56.276000 43.319900 0
M  V30 9 H 74.072300 55.184600 44.123700 0
M  V30 10 H 74.976900 57.532200 43.280500 0
M  V30 11 H 75.972000 56.087300 43.321900 0
M  V30 12 H 74.057800 57.556700 39.323400 0
M  V30 13 H 73.113700 56.474600 40.365100 0
M  V30 14 H 73.504800 58.104700 40.932900 0
M  V30 15 R 73.421100 53.399600 42.272700 0
M  V30 END ATOM
M  V30 BEGIN BOND
M  V30 1 1 2 1
M  V30 2 1 3 2
M  V30 3 1 4 3
M  V30 4 1 5 4
M  V30 5 2 6 4
M  V30 6 2 7 4
M  V30 7 1 8 2
M  V30 8 1 9 2
M  V30 9 1 10 3
M  V30 10 1 11 3
M  V30 11 1 12 5
M  V30 12 1 13 5
M  V30 13 1 14 5
M  V30 14 1 15 1
M  V30 END BOND
M  V30 END CTAB
M  END
$$$$
R-group 346 (10855-1)
     RDKit          3D

  0  0  0  0  0  0  0  0  0  0999 V3000
M  V30 BEGIN CTAB
M  V30 COUNTS 15 14 0 0 1
M  V30 BEGIN ATOM
M  V30 1 C 76.471800 57.630600 42.813200 0
M  V30 2 C 75.011100 57.485400 42.345900 0
M  V30 3 C 74.696900 56.088200 41.856200 0
M  V30 4 O 75.408900 55.657800 40.951700 0
M  V30 5 N 73.685100 55.382500 42.395600 0
M  V30 6 C 72.769700 56.066500 43.324800 0
M  V30 7 H 76.872300 58.627900 42.924600 0
M  V30 8 H 76.562700 57.162200 43.778700 0
M  V30 9 H 77.139500 57.128400 42.132000 0
M  V30 10 H 74.827900 58.055900 41.445300 0
M  V30 11 H 74.382900 57.909400 43.132700 0
M  V30 12 H 73.259600 56.130200 44.291800 0
M  V30 13 H 72.527900 57.074100 42.996000 0
M  V30 14 H 71.777800 55.659500 43.451300 0
M  V30 15 R 73.486300 53.925100 42.175600 0
M  V30 END ATOM
M  V30 BEGIN BOND
M  V30 1 1 2 1
M  V30 2 1 3 2
M  V30 3 2 4 3
M  V30 4 1 5 3
M  V30 5 1 6 5
M  V30 6 1 7 1
M  V30 7 1 8 1
M  V30 8 1 9 1
M  V30 9 1 10 2
M  V30 10 1 11 2
M  V30 11 1 12 6
M  V30 12 1 13 6
M  V30 13 1 14 6
M  V30 14 1 15 5
M  V30 END BOND
M  V30 END CTAB
M  END
$$$$
R-group 347 (19242-1)
     RDKit          3D

  0  0  0  0  0  0  0  0  0  0999 V3000
M  V30 BEGIN CTAB
M  V30 COUNTS 13 13 0 0 1
M  V30 BEGIN ATOM
M  V30 1 C 74.232700 54.842400 41.803600 0
M  V30 2 C 75.272300 55.612300 41.196600 0
M  V30 3 N 75.313600 56.857800 41.643600 0
M  V30 4 N 74.298900 56.894000 42.525000 0
M  V30 5 C 73.864800 58.057100 43.231800 0
M  V30 6 C 72.871800 58.748300 42.389100 0
M  V30 7 N 72.072300 59.258000 41.724700 0
M  V30 8 C 73.672300 55.716300 42.644800 0
M  V30 9 H 76.009600 55.317200 40.469300 0
M  V30 10 H 74.714000 58.566100 43.702800 0
M  V30 11 H 73.272300 57.721500 44.085000 0
M  V30 12 H 72.839700 55.602800 43.324100 0
M  V30 13 R 73.760100 53.435100 41.706700 0
M  V30 END ATOM
M  V30 BEGIN BOND
M  V30 1 1 2 1
M  V30 2 2 3 2
M  V30 3 1 4 3
M  V30 4 1 5 4
M  V30 5 1 6 5
M  V30 6 3 7 6
M  V30 7 2 8 1
M  V30 8 1 8 4
M  V30 9 1 9 2
M  V30 10 1 10 5
M  V30 11 1 11 5
M  V30 12 1 12 8
M  V30 13 1 13 1
M  V30 END BOND
M  V30 END CTAB
M  END
$$$$
R-group 348 (20044-2)
     RDKit          3D

  0  0  0  0  0  0  0  0  0  0999 V3000
M  V30 BEGIN CTAB
M  V30 COUNTS 18 19 0 0 1
M  V30 BEGIN ATOM
M  V30 1 N 74.024600 54.577200 41.778200 0
M  V30 2 C 72.995100 55.399200 42.314000 0
M  V30 3 C 73.689200 56.299100 43.326800 0 CFG=1
M  V30 4 C 74.876300 55.460400 43.747900 0
M  V30 5 C 75.239500 55.161200 42.317500 0 CFG=2
M  V30 6 C 75.429400 56.590900 41.746200 0
M  V30 7 C 74.399100 57.402400 42.570100 0 CFG=1
M  V30 8 F 73.484900 58.057100 41.851200 0
M  V30 9 H 72.872300 55.950800 41.386800 0
M  V30 10 H 72.108500 54.858500 42.659300 0
M  V30 11 H 73.038100 56.645500 44.124800 0
M  V30 12 H 74.549400 54.653700 44.380200 0
M  V30 13 H 75.672900 56.005000 44.254300 0
M  V30 14 H 76.035900 54.475900 42.124100 0
M  V30 15 H 76.441900 56.957500 41.945900 0
M  V30 16 H 75.251300 56.639700 40.672400 0
M  V30 17 H 74.859300 58.057100 43.313200 0
M  V30 18 R 73.689200 53.173200 41.935500 0
M  V30 END ATOM
M  V30 BEGIN BOND
M  V30 1 1 2 1
M  V30 2 1 3 2
M  V30 3 1 4 3
M  V30 4 1 5 1
M  V30 5 1 5 4
M  V30 6 1 6 5
M  V30 7 1 7 3
M  V30 8 1 7 6
M  V30 9 1 8 7
M  V30 10 1 9 2
M  V30 11 1 10 2
M  V30 12 1 3 11 CFG=1
M  V30 13 1 12 4
M  V30 14 1 13 4
M  V30 15 1 5 14 CFG=1
M  V30 16 1 15 6
M  V30 17 1 16 6
M  V30 18 1 7 17 CFG=1
M  V30 19 1 18 1
M  V30 END BOND
M  V30 END CTAB
M  END
$$$$
R-group 349 (25839-2)
     RDKit          3D

  0  0  0  0  0  0  0  0  0  0999 V3000
M  V30 BEGIN CTAB
M  V30 COUNTS 17 17 0 0 1
M  V30 BEGIN ATOM
M  V30 1 C 73.859200 54.863600 41.975400 0 CFG=2
M  V30 2 N 73.426300 55.583200 40.797500 0
M  V30 3 C 74.290200 56.458400 40.340300 0
M  V30 4 O 74.071400 57.257200 39.444000 0
M  V30 5 C 75.597700 56.396100 41.084400 0
M  V30 6 C 75.337600 55.311200 42.144300 0 CFG=1
M  V30 7 C 75.587000 55.869000 43.542200 0
M  V30 8 O 75.672000 54.858800 44.526900 0
M  V30 9 H 73.263800 55.250400 42.801500 0
M  V30 10 H 76.404400 56.114800 40.407200 0
M  V30 11 H 75.831000 57.370700 41.514300 0
M  V30 12 H 76.022200 54.509400 41.915000 0
M  V30 13 H 76.472400 56.481800 43.566400 0
M  V30 14 H 74.775600 56.564800 43.721700 0
M  V30 15 H 72.494800 55.487300 40.422600 0
M  V30 16 H 74.783600 54.621000 44.762700 0
M  V30 17 R 73.562500 53.341700 41.861500 0
M  V30 END ATOM
M  V30 BEGIN BOND
M  V30 1 1 2 1
M  V30 2 1 3 2
M  V30 3 2 4 3
M  V30 4 1 5 3
M  V30 5 1 6 1
M  V30 6 1 6 5
M  V30 7 1 7 6
M  V30 8 1 8 7
M  V30 9 1 1 9 CFG=1
M  V30 10 1 10 5
M  V30 11 1 11 5
M  V30 12 1 6 12 CFG=3
M  V30 13 1 13 7
M  V30 14 1 14 7
M  V30 15 1 15 2
M  V30 16 1 16 8
M  V30 17 1 17 1
M  V30 END BOND
M  V30 END CTAB
M  END
$$$$
R-group 350 (42816-2)
     RDKit          3D

  0  0  0  0  0  0  0  0  0  0999 V3000
M  V30 BEGIN CTAB
M  V30 COUNTS 18 17 0 0 1
M  V30 BEGIN ATOM
M  V30 1 C 76.301400 57.418800 40.643700 0
M  V30 2 C 75.094900 57.037200 39.746900 0
M  V30 3 S 73.481400 56.810500 40.547300 0
M  V30 4 O 72.738700 55.850400 39.724700 0
M  V30 5 O 72.872300 58.104500 40.826200 0
M  V30 6 C 73.810200 56.160200 42.227200 0
M  V30 7 C 74.660300 54.904000 42.332900 0 CFG=1
M  V30 8 O 75.272200 55.109100 43.595100 0
M  V30 9 H 77.242100 57.246900 40.124900 0
M  V30 10 H 76.330300 58.458100 40.924800 0
M  V30 11 H 76.368000 56.849000 41.565200 0
M  V30 12 H 75.272100 56.064900 39.324800 0
M  V30 13 H 74.872200 57.730500 38.929500 0
M  V30 14 H 72.872300 56.019800 42.752500 0
M  V30 15 H 74.290900 57.001200 42.731000 0
M  V30 16 H 75.469700 54.904700 41.608600 0
M  V30 17 H 74.589700 55.102200 44.252500 0
M  V30 18 R 73.901600 53.538200 42.279900 0
M  V30 END ATOM
M  V30 BEGIN BOND
M  V30 1 1 2 1
M  V30 2 1 3 2
M  V30 3 2 4 3
M  V30 4 2 5 3
M  V30 5 1 6 3
M  V30 6 1 7 6
M  V30 7 1 8 7
M  V30 8 1 9 1
M  V30 9 1 10 1
M  V30 10 1 11 1
M  V30 11 1 12 2
M  V30 12 1 13 2
M  V30 13 1 14 6
M  V30 14 1 15 6
M  V30 15 1 7 16 CFG=3
M  V30 16 1 17 8
M  V30 17 1 18 7
M  V30 END BOND
M  V30 END CTAB
M  END
$$$$
R-group 351 (14492-1)
     RDKit          3D

  0  0  0  0  0  0  0  0  0  0999 V3000
M  V30 BEGIN CTAB
M  V30 COUNTS 17 17 0 0 1
M  V30 BEGIN ATOM
M  V30 1 N 73.934300 54.878600 41.635400 0
M  V30 2 C 73.501900 55.430500 42.924900 0
M  V30 3 C 73.792900 56.904100 43.108200 0
M  V30 4 C 73.367400 57.731100 41.912300 0
M  V30 5 F 74.069500 58.820400 42.083800 0
M  V30 6 F 72.074000 58.061800 41.921200 0
M  V30 7 C 73.786200 57.098900 40.586100 0
M  V30 8 C 73.329600 55.645600 40.533200 0
M  V30 9 H 72.433400 55.258400 43.066700 0
M  V30 10 H 74.070800 54.959800 43.725000 0
M  V30 11 H 73.269900 57.274300 43.984100 0
M  V30 12 H 74.867400 57.009400 43.279500 0
M  V30 13 H 74.876700 57.125600 40.488500 0
M  V30 14 H 73.382800 57.662200 39.746800 0
M  V30 15 H 73.664600 55.271700 39.567600 0
M  V30 16 H 72.245700 55.558100 40.523700 0
M  V30 17 R 73.616700 53.440600 41.647300 0
M  V30 END ATOM
M  V30 BEGIN BOND
M  V30 1 1 2 1
M  V30 2 1 3 2
M  V30 3 1 4 3
M  V30 4 1 5 4
M  V30 5 1 6 4
M  V30 6 1 7 4
M  V30 7 1 8 1
M  V30 8 1 8 7
M  V30 9 1 9 2
M  V30 10 1 10 2
M  V30 11 1 11 3
M  V30 12 1 12 3
M  V30 13 1 13 7
M  V30 14 1 14 7
M  V30 15 1 15 8
M  V30 16 1 16 8
M  V30 17 1 17 1
M  V30 END BOND
M  V30 END CTAB
M  END
$$$$
R-group 352 (17913-1)
     RDKit          3D

  0  0  0  0  0  0  0  0  0  0999 V3000
M  V30 BEGIN CTAB
M  V30 COUNTS 19 19 0 0 1
M  V30 BEGIN ATOM
M  V30 1 C 73.768200 55.560700 41.898600 0
M  V30 2 C 75.240400 56.006300 41.827300 0
M  V30 3 N 75.811100 56.458000 42.925100 0
M  V30 4 O 75.840300 56.057900 40.770000 0
M  V30 5 C 73.080900 56.491400 40.846400 0
M  V30 6 C 72.930000 57.861900 41.541700 0
M  V30 7 C 72.943500 57.608000 43.053200 0
M  V30 8 C 73.093900 56.084100 43.199700 0
M  V30 9 H 75.292600 56.492500 43.787400 0
M  V30 10 H 73.627800 56.594900 39.907800 0
M  V30 11 H 72.109300 56.145900 40.522100 0
M  V30 12 H 73.805200 58.457600 41.325100 0
M  V30 13 H 72.072300 58.434800 41.196600 0
M  V30 14 H 73.826300 58.067300 43.486800 0
M  V30 15 H 72.096000 58.058000 43.577200 0
M  V30 16 H 72.099400 55.658200 43.325100 0
M  V30 17 H 73.672100 55.814900 44.083100 0
M  V30 18 H 76.748300 56.824100 42.868800 0
M  V30 19 R 73.582600 53.975300 41.744500 0
M  V30 END ATOM
M  V30 BEGIN BOND
M  V30 1 1 2 1
M  V30 2 1 3 2
M  V30 3 2 4 2
M  V30 4 1 5 1
M  V30 5 1 6 5
M  V30 6 1 7 6
M  V30 7 1 8 1
M  V30 8 1 8 7
M  V30 9 1 9 3
M  V30 10 1 10 5
M  V30 11 1 11 5
M  V30 12 1 12 6
M  V30 13 1 13 6
M  V30 14 1 14 7
M  V30 15 1 15 7
M  V30 16 1 16 8
M  V30 17 1 17 8
M  V30 18 1 18 3
M  V30 19 1 19 1
M  V30 END BOND
M  V30 END CTAB
M  END
$$$$
R-group 353 (36329-1)
     RDKit          3D

  0  0  0  0  0  0  0  0  0  0999 V3000
M  V30 BEGIN CTAB
M  V30 COUNTS 20 20 0 0 1
M  V30 BEGIN ATOM
M  V30 1 C 73.894300 54.501700 41.726800 0
M  V30 2 O 73.272500 55.183400 42.497500 0
M  V30 3 N 74.871700 54.960800 40.931300 0
M  V30 4 C 75.086400 56.348900 40.569000 0 CFG=1
M  V30 5 C 73.802600 56.853000 39.937500 0
M  V30 6 C 72.945600 57.643200 40.580100 0
M  V30 7 C 73.204500 58.217200 41.961700 0
M  V30 8 C 74.462000 57.701200 42.697700 0
M  V30 9 C 75.581900 57.210400 41.753100 0
M  V30 10 H 75.849300 56.377200 39.799000 0
M  V30 11 H 73.548100 56.473800 38.955600 0
M  V30 12 H 72.015400 57.904700 40.124700 0
M  V30 13 H 73.272900 59.268200 41.759500 0
M  V30 14 H 72.331200 58.083500 42.591000 0
M  V30 15 H 74.782900 58.454500 43.417300 0
M  V30 16 H 74.209500 56.937400 43.399900 0
M  V30 17 H 76.334200 56.663400 42.322300 0
M  V30 18 H 76.109200 58.058200 41.319400 0
M  V30 19 H 75.388100 54.275600 40.403100 0
M  V30 20 R 73.582800 53.038300 41.763900 0
M  V30 END ATOM
M  V30 BEGIN BOND
M  V30 1 2 2 1
M  V30 2 1 3 1
M  V30 3 1 4 3
M  V30 4 1 5 4
M  V30 5 2 6 5
M  V30 6 1 7 6
M  V30 7 1 8 7
M  V30 8 1 9 4
M  V30 9 1 9 8
M  V30 10 1 4 10 CFG=3
M  V30 11 1 11 5
M  V30 12 1 12 6
M  V30 13 1 13 7
M  V30 14 1 14 7
M  V30 15 1 15 8
M  V30 16 1 16 8
M  V30 17 1 17 9
M  V30 18 1 18 9
M  V30 19 1 19 3
M  V30 20 1 20 1
M  V30 END BOND
M  V30 END CTAB
M  END
$$$$
R-group 354 (843-1)
     RDKit          3D

  0  0  0  0  0  0  0  0  0  0999 V3000
M  V30 BEGIN CTAB
M  V30 COUNTS 17 16 0 0 1
M  V30 BEGIN ATOM
M  V30 1 C 72.071200 59.432700 41.520800 0
M  V30 2 C 72.899200 58.184000 41.692700 0
M  V30 3 C 72.966800 57.724600 43.145800 0
M  V30 4 C 73.025600 56.222900 43.327700 0
M  V30 5 S 74.373300 55.447500 42.364100 0
M  V30 6 O 75.551700 55.658000 43.212000 0
M  V30 7 O 74.397600 55.941600 40.977800 0
M  V30 8 H 71.681700 59.520500 40.524700 0
M  V30 9 H 71.272200 59.421400 42.229200 0
M  V30 10 H 72.621200 60.328400 41.720900 0
M  V30 11 H 73.902900 58.364800 41.330300 0
M  V30 12 H 72.472100 57.419600 41.051100 0
M  V30 13 H 72.112400 58.057800 43.724800 0
M  V30 14 H 73.852100 58.148600 43.608700 0
M  V30 15 H 72.077100 55.691100 43.297400 0
M  V30 16 H 73.271600 56.058000 44.367500 0
M  V30 17 R 73.777800 53.682200 42.330800 0
M  V30 END ATOM
M  V30 BEGIN BOND
M  V30 1 1 2 1
M  V30 2 1 3 2
M  V30 3 1 4 3
M  V30 4 1 5 4
M  V30 5 2 6 5
M  V30 6 2 7 5
M  V30 7 1 8 1
M  V30 8 1 9 1
M  V30 9 1 10 1
M  V30 10 1 11 2
M  V30 11 1 12 2
M  V30 12 1 13 3
M  V30 13 1 14 3
M  V30 14 1 15 4
M  V30 15 1 16 4
M  V30 16 1 17 5
M  V30 END BOND
M  V30 END CTAB
M  END
$$$$
R-group 355 (22931-2)
     RDKit          3D

  0  0  0  0  0  0  0  0  0  0999 V3000
M  V30 BEGIN CTAB
M  V30 COUNTS 20 20 0 0 1
M  V30 BEGIN ATOM
M  V30 1 O 74.130200 54.450500 42.014500 0
M  V30 2 C 73.107000 55.386300 41.998400 0 CFG=1
M  V30 3 C 73.541800 56.445900 43.007500 0
M  V30 4 C 75.017600 56.890900 42.842200 0
M  V30 5 C 75.150200 57.480700 41.451200 0
M  V30 6 O 75.268000 56.456700 40.525100 0
M  V30 7 C 74.112300 56.275200 39.715700 0
M  V30 8 C 72.852800 55.934300 40.535300 0
M  V30 9 H 72.225800 54.858000 42.442700 0
M  V30 10 H 72.895100 57.328000 42.945700 0
M  V30 11 H 73.404400 56.066900 44.022100 0
M  V30 12 H 75.290700 57.639400 43.580700 0
M  V30 13 H 75.713100 56.064500 42.971400 0
M  V30 14 H 74.245200 58.059100 41.307200 0
M  V30 15 H 76.070600 58.066300 41.324700 0
M  V30 16 H 73.923000 57.201600 39.187900 0
M  V30 17 H 74.282700 55.577000 38.907300 0
M  V30 18 H 72.212000 55.243000 39.975700 0
M  V30 19 H 72.247400 56.868700 40.526800 0
M  V30 20 R 73.722400 53.115100 42.101100 0
M  V30 END ATOM
M  V30 BEGIN BOND
M  V30 1 1 2 1
M  V30 2 1 3 2
M  V30 3 1 4 3
M  V30 4 1 5 4
M  V30 5 1 6 5
M  V30 6 1 7 6
M  V30 7 1 8 2
M  V30 8 1 8 7
M  V30 9 1 2 9 CFG=1
M  V30 10 1 10 3
M  V30 11 1 11 3
M  V30 12 1 12 4
M  V30 13 1 13 4
M  V30 14 1 14 5
M  V30 15 1 15 5
M  V30 16 1 16 7
M  V30 17 1 17 7
M  V30 18 1 18 8
M  V30 19 1 19 8
M  V30 20 1 20 1
M  V30 END BOND
M  V30 END CTAB
M  END
$$$$
R-group 356 (3037-1)
     RDKit          3D

  0  0  0  0  0  0  0  0  0  0999 V3000
M  V30 BEGIN CTAB
M  V30 COUNTS 18 17 0 0 1
M  V30 BEGIN ATOM
M  V30 1 C 73.763200 55.260300 42.820900 0
M  V30 2 C 75.239700 55.647200 42.929800 0
M  V30 3 C 75.473400 57.155100 42.871100 0
M  V30 4 C 76.428700 57.476500 41.726300 0
M  V30 5 C 75.880200 57.258000 40.326500 0
M  V30 6 C 74.419700 57.258000 40.163500 0
M  V30 7 N 73.272200 57.251500 40.034500 0
M  V30 8 H 73.274700 55.657900 43.712000 0
M  V30 9 H 73.275500 55.847000 42.056100 0
M  V30 10 H 75.782800 55.154600 42.125700 0
M  V30 11 H 75.666400 55.268100 43.857600 0
M  V30 12 H 75.922600 57.488400 43.804300 0
M  V30 13 H 74.534300 57.702400 42.780200 0
M  V30 14 H 77.272200 56.828300 41.816700 0
M  V30 15 H 76.872300 58.458000 41.800700 0
M  V30 16 H 76.227300 56.298100 39.959600 0
M  V30 17 H 76.308400 58.050100 39.724600 0
M  V30 18 R 73.507800 53.753400 42.482100 0
M  V30 END ATOM
M  V30 BEGIN BOND
M  V30 1 1 2 1
M  V30 2 1 3 2
M  V30 3 1 4 3
M  V30 4 1 5 4
M  V30 5 1 6 5
M  V30 6 3 7 6
M  V30 7 1 8 1
M  V30 8 1 9 1
M  V30 9 1 10 2
M  V30 10 1 11 2
M  V30 11 1 12 3
M  V30 12 1 13 3
M  V30 13 1 14 4
M  V30 14 1 15 4
M  V30 15 1 16 5
M  V30 16 1 17 5
M  V30 17 1 18 1
M  V30 END BOND
M  V30 END CTAB
M  END
$$$$
R-group 357 (2506-1)
     RDKit          3D

  0  0  0  0  0  0  0  0  0  0999 V3000
M  V30 BEGIN CTAB
M  V30 COUNTS 16 15 0 0 1
M  V30 BEGIN ATOM
M  V30 1 C 76.267700 56.901800 42.256100 0
M  V30 2 C 75.699400 56.911300 40.857000 0
M  V30 3 S 73.885800 56.859000 41.007100 0
M  V30 4 O 73.276000 57.222400 39.724500 0
M  V30 5 O 73.466400 57.507000 42.255000 0
M  V30 6 N 73.671000 55.207200 41.168600 0
M  V30 7 C 73.299000 54.571900 42.411000 0
M  V30 8 H 77.275000 57.228000 42.125100 0
M  V30 9 H 75.811200 57.636000 42.930900 0
M  V30 10 H 76.188600 55.906200 42.708500 0
M  V30 11 H 76.027200 56.048700 40.275700 0
M  V30 12 H 76.069900 57.796000 40.329300 0
M  V30 13 H 72.287500 54.856800 42.679500 0
M  V30 14 H 73.944600 54.914200 43.211200 0
M  V30 15 H 73.291100 54.764100 40.338100 0
M  V30 16 R 73.356700 53.059400 42.197000 0
M  V30 END ATOM
M  V30 BEGIN BOND
M  V30 1 1 2 1
M  V30 2 1 3 2
M  V30 3 2 4 3
M  V30 4 2 5 3
M  V30 5 1 6 3
M  V30 6 1 7 6
M  V30 7 1 8 1
M  V30 8 1 9 1
M  V30 9 1 10 1
M  V30 10 1 11 2
M  V30 11 1 12 2
M  V30 12 1 13 7
M  V30 13 1 14 7
M  V30 14 1 15 6
M  V30 15 1 16 7
M  V30 END BOND
M  V30 END CTAB
M  END
$$$$
R-group 358 (22930-1)
     RDKit          3D

  0  0  0  0  0  0  0  0  0  0999 V3000
M  V30 BEGIN CTAB
M  V30 COUNTS 20 20 0 0 1
M  V30 BEGIN ATOM
M  V30 1 O 72.868500 54.184700 42.124800 0
M  V30 2 C 73.282300 55.399800 41.496800 0 CFG=2
M  V30 3 C 72.610900 55.607200 40.106400 0
M  V30 4 C 72.504600 57.031200 39.609600 0
M  V30 5 C 73.672300 57.939000 39.864500 0
M  V30 6 C 75.058300 57.257600 39.936300 0
M  V30 7 O 75.296200 56.815900 41.259300 0
M  V30 8 C 74.826900 55.511900 41.512400 0
M  V30 9 H 72.873200 56.168200 42.157800 0
M  V30 10 H 73.132500 55.150200 39.282500 0
M  V30 11 H 71.613800 55.165600 40.118500 0
M  V30 12 H 72.263100 57.030000 38.541600 0
M  V30 13 H 71.721900 57.538700 40.125600 0
M  V30 14 H 73.672200 58.715800 39.099500 0
M  V30 15 H 73.492000 58.451800 40.812800 0
M  V30 16 H 75.147600 56.459600 39.204500 0
M  V30 17 H 75.895500 57.927900 39.724800 0
M  V30 18 H 75.186300 55.259300 42.514100 0
M  V30 19 H 75.306000 54.812600 40.825900 0
M  V30 20 R 73.355500 52.914100 41.706200 0
M  V30 END ATOM
M  V30 BEGIN BOND
M  V30 1 1 2 1
M  V30 2 1 3 2
M  V30 3 1 4 3
M  V30 4 1 5 4
M  V30 5 1 6 5
M  V30 6 1 7 6
M  V30 7 1 8 2
M  V30 8 1 8 7
M  V30 9 1 2 9 CFG=1
M  V30 10 1 10 3
M  V30 11 1 11 3
M  V30 12 1 12 4
M  V30 13 1 13 4
M  V30 14 1 14 5
M  V30 15 1 15 5
M  V30 16 1 16 6
M  V30 17 1 17 6
M  V30 18 1 18 8
M  V30 19 1 19 8
M  V30 20 1 20 1
M  V30 END BOND
M  V30 END CTAB
M  END
$$$$
R-group 359 (44233-1)
     RDKit          3D

  0  0  0  0  0  0  0  0  0  0999 V3000
M  V30 BEGIN CTAB
M  V30 COUNTS 21 20 0 0 1
M  V30 BEGIN ATOM
M  V30 1 C 73.733800 55.512600 42.267200 0 CFG=1
M  V30 2 C 72.890800 56.230700 43.372100 0
M  V30 3 O 72.872600 57.657300 43.319700 0
M  V30 4 C 75.245700 55.907200 42.335600 0
M  V30 5 C 75.916600 55.554300 40.997400 0
M  V30 6 C 75.923200 55.475300 43.660100 0
M  V30 7 C 75.456400 57.390900 42.348300 0
M  V30 8 H 73.357900 55.984500 41.358100 0
M  V30 9 H 71.886300 55.819100 43.382600 0
M  V30 10 H 73.262900 56.058000 44.369900 0
M  V30 11 H 76.872100 56.026800 40.862700 0
M  V30 12 H 75.322200 55.931500 40.164400 0
M  V30 13 H 76.070700 54.506500 40.832600 0
M  V30 14 H 75.317300 55.657900 44.530000 0
M  V30 15 H 76.072600 54.427000 43.725000 0
M  V30 16 H 76.872200 55.961300 43.856500 0
M  V30 17 H 75.273000 57.818000 43.334000 0
M  V30 18 H 76.490500 57.659500 42.138900 0
M  V30 19 H 74.824400 57.872200 41.603200 0
M  V30 20 H 73.766100 57.961200 43.283900 0
M  V30 21 R 73.396800 53.957600 42.069900 0
M  V30 END ATOM
M  V30 BEGIN BOND
M  V30 1 1 2 1
M  V30 2 1 3 2
M  V30 3 1 4 1
M  V30 4 1 5 4
M  V30 5 1 6 4
M  V30 6 1 7 4
M  V30 7 1 1 8 CFG=3
M  V30 8 1 9 2
M  V30 9 1 10 2
M  V30 10 1 11 5
M  V30 11 1 12 5
M  V30 12 1 13 5
M  V30 13 1 14 6
M  V30 14 1 15 6
M  V30 15 1 16 6
M  V30 16 1 17 7
M  V30 17 1 18 7
M  V30 18 1 19 7
M  V30 19 1 20 3
M  V30 20 1 21 1
M  V30 END BOND
M  V30 END CTAB
M  END
$$$$
R-group 360 (16387-1)
     RDKit          3D

  0  0  0  0  0  0  0  0  0  0999 V3000
M  V30 BEGIN CTAB
M  V30 COUNTS 22 22 0 0 1
M  V30 BEGIN ATOM
M  V30 1 N 73.269900 54.526300 42.124800 0
M  V30 2 C 74.151300 55.431500 42.549000 0
M  V30 3 O 75.272300 55.147300 42.919900 0
M  V30 4 C 73.702000 56.871400 42.706200 0
M  V30 5 C 74.327600 57.775700 41.646900 0
M  V30 6 C 75.879100 57.657300 41.447300 0
M  V30 7 C 76.070600 56.940000 40.140300 0
M  V30 8 C 74.778000 57.130500 39.324900 0
M  V30 9 C 73.673000 57.558600 40.276300 0
M  V30 10 H 72.619400 56.948100 42.696200 0
M  V30 11 H 73.991500 57.236300 43.687600 0
M  V30 12 H 74.070000 58.778300 41.969500 0
M  V30 13 H 76.472200 58.569100 41.324500 0
M  V30 14 H 76.389600 57.168500 42.274200 0
M  V30 15 H 76.956300 57.411500 39.724700 0
M  V30 16 H 76.279300 55.884100 40.310200 0
M  V30 17 H 74.871800 57.923000 38.576600 0
M  V30 18 H 74.501400 56.224500 38.787000 0
M  V30 19 H 72.860900 56.830600 40.297400 0
M  V30 20 H 73.257300 58.495600 39.916900 0
M  V30 21 H 72.334400 54.858000 41.954900 0
M  V30 22 R 73.420300 53.108400 41.877800 0
M  V30 END ATOM
M  V30 BEGIN BOND
M  V30 1 1 2 1
M  V30 2 2 3 2
M  V30 3 1 4 2
M  V30 4 1 5 4
M  V30 5 1 6 5
M  V30 6 1 7 6
M  V30 7 1 8 7
M  V30 8 1 9 5
M  V30 9 1 9 8
M  V30 10 1 10 4
M  V30 11 1 11 4
M  V30 12 1 12 5
M  V30 13 1 13 6
M  V30 14 1 14 6
M  V30 15 1 15 7
M  V30 16 1 16 7
M  V30 17 1 17 8
M  V30 18 1 18 8
M  V30 19 1 19 9
M  V30 20 1 20 9
M  V30 21 1 21 1
M  V30 22 1 22 1
M  V30 END BOND
M  V30 END CTAB
M  END
$$$$
R-group 361 (10117-1)
     RDKit          3D

  0  0  0  0  0  0  0  0  0  0999 V3000
M  V30 BEGIN CTAB
M  V30 COUNTS 23 24 0 0 1
M  V30 BEGIN ATOM
M  V30 1 C 74.067700 54.560500 42.478900 0 CFG=2
M  V30 2 C 72.989200 55.475100 42.056300 0
M  V30 3 C 73.697500 56.526100 41.165400 0 CFG=1
M  V30 4 C 72.797300 57.334300 40.206300 0
M  V30 5 O 72.122700 56.455700 39.326700 0
M  V30 6 C 74.650400 57.369000 42.021300 0
M  V30 7 C 75.729800 56.388900 42.475300 0
M  V30 8 C 75.284800 55.120500 41.742700 0 CFG=2
M  V30 9 C 74.726600 55.697600 40.440700 0
M  V30 10 H 74.205900 54.709400 43.545400 0
M  V30 11 H 72.296000 54.857200 41.487600 0
M  V30 12 H 72.486800 55.899700 42.923700 0
M  V30 13 H 72.082600 57.943300 40.754800 0
M  V30 14 H 73.398700 58.015200 39.607600 0
M  V30 15 H 74.169500 57.932800 42.818900 0
M  V30 16 H 75.154800 58.008100 41.327100 0
M  V30 17 H 75.781300 56.282400 43.561400 0
M  V30 18 H 76.710700 56.715000 42.126300 0
M  V30 19 H 76.055500 54.384100 41.656200 0
M  V30 20 H 75.445900 56.281600 39.868200 0
M  V30 21 H 74.229600 55.018100 39.760300 0
M  V30 22 H 71.657900 55.812300 39.837800 0
M  V30 23 R 73.724300 53.094100 42.204300 0
M  V30 END ATOM
M  V30 BEGIN BOND
M  V30 1 1 2 1
M  V30 2 1 3 2
M  V30 3 1 3 4 CFG=3
M  V30 4 1 5 4
M  V30 5 1 6 3
M  V30 6 1 7 6
M  V30 7 1 8 1
M  V30 8 1 8 7
M  V30 9 1 9 3
M  V30 10 1 9 8
M  V30 11 1 1 10 CFG=1
M  V30 12 1 11 2
M  V30 13 1 12 2
M  V30 14 1 13 4
M  V30 15 1 14 4
M  V30 16 1 15 6
M  V30 17 1 16 6
M  V30 18 1 17 7
M  V30 19 1 18 7
M  V30 20 1 8 19 CFG=3
M  V30 21 1 20 9
M  V30 22 1 21 9
M  V30 23 1 22 5
M  V30 24 1 23 1
M  V30 END BOND
M  V30 END CTAB
M  END
$$$$
R-group 362 (6815-1)
     RDKit          3D

  0  0  0  0  0  0  0  0  0  0999 V3000
M  V30 BEGIN CTAB
M  V30 COUNTS 13 12 0 0 1
M  V30 BEGIN ATOM
M  V30 1 C 74.089200 55.360000 41.792900 0 CFG=2
M  V30 2 O 75.272200 55.623700 41.079000 0
M  V30 3 C 74.181700 56.128800 43.129800 0
M  V30 4 C 72.914500 56.936500 43.405000 0
M  V30 5 O 72.876800 58.058000 42.524900 0
M  V30 6 H 73.312800 55.832100 41.190200 0
M  V30 7 H 74.351000 55.448100 43.957300 0
M  V30 8 H 75.034600 56.810800 43.141400 0
M  V30 9 H 72.072900 56.248000 43.325100 0
M  V30 10 H 72.872200 57.310400 44.423600 0
M  V30 11 H 76.000500 55.241900 41.544800 0
M  V30 12 H 73.042800 57.764000 41.641800 0
M  V30 13 R 73.734000 53.837800 41.864000 0
M  V30 END ATOM
M  V30 BEGIN BOND
M  V30 1 1 2 1
M  V30 2 1 3 1
M  V30 3 1 4 3
M  V30 4 1 5 4
M  V30 5 1 1 6 CFG=3
M  V30 6 1 7 3
M  V30 7 1 8 3
M  V30 8 1 9 4
M  V30 9 1 10 4
M  V30 10 1 11 2
M  V30 11 1 12 5
M  V30 12 1 13 1
M  V30 END BOND
M  V30 END CTAB
M  END
$$$$
R-group 363 (20711-2)
     RDKit          3D

  0  0  0  0  0  0  0  0  0  0999 V3000
M  V30 BEGIN CTAB
M  V30 COUNTS 19 18 0 0 1
M  V30 BEGIN ATOM
M  V30 1 C 72.879100 57.021300 38.989100 0
M  V30 2 C 72.802200 56.538500 40.427100 0
M  V30 3 O 74.062400 55.988600 40.709700 0
M  V30 4 C 74.201000 55.347800 41.960900 0 CFG=2
M  V30 5 C 75.669900 55.652200 42.298600 0
M  V30 6 O 76.020400 57.008300 42.360300 0
M  V30 7 C 76.462700 57.560200 41.126000 0
M  V30 8 H 71.900900 57.258000 38.570400 0
M  V30 9 H 73.505700 57.908100 38.925300 0
M  V30 10 H 73.349200 56.258600 38.370000 0
M  V30 11 H 72.077600 55.735500 40.501500 0
M  V30 12 H 72.495400 57.348800 41.097800 0
M  V30 13 H 73.580200 55.836900 42.716800 0
M  V30 14 H 75.934400 55.255700 43.277300 0
M  V30 15 H 76.308800 55.258100 41.526800 0
M  V30 16 H 76.871500 58.534200 41.329700 0
M  V30 17 H 77.255400 57.002600 40.646000 0
M  V30 18 H 75.670800 57.657600 40.390800 0
M  V30 19 R 73.824500 53.813000 41.858300 0
M  V30 END ATOM
M  V30 BEGIN BOND
M  V30 1 1 2 1
M  V30 2 1 3 2
M  V30 3 1 4 3
M  V30 4 1 5 4
M  V30 5 1 6 5
M  V30 6 1 7 6
M  V30 7 1 8 1
M  V30 8 1 9 1
M  V30 9 1 10 1
M  V30 10 1 11 2
M  V30 11 1 12 2
M  V30 12 1 4 13 CFG=1
M  V30 13 1 14 5
M  V30 14 1 15 5
M  V30 15 1 16 7
M  V30 16 1 17 7
M  V30 17 1 18 7
M  V30 18 1 19 4
M  V30 END BOND
M  V30 END CTAB
M  END
$$$$
R-group 364 (3724-1)
     RDKit          3D

  0  0  0  0  0  0  0  0  0  0999 V3000
M  V30 BEGIN CTAB
M  V30 COUNTS 14 13 0 0 1
M  V30 BEGIN ATOM
M  V30 1 N 74.296600 55.072800 42.116200 0
M  V30 2 C 73.272000 56.071500 42.317400 0
M  V30 3 C 75.293700 55.584900 41.152500 0
M  V30 4 C 75.997500 56.819300 41.674100 0
M  V30 5 N 76.072200 56.861700 42.998700 0
M  V30 6 O 76.472300 57.657900 40.924800 0
M  V30 7 H 72.472200 55.665100 42.932100 0
M  V30 8 H 73.593700 56.969900 42.841100 0
M  V30 9 H 72.872300 56.385900 41.352200 0
M  V30 10 H 76.071800 54.857800 40.988300 0
M  V30 11 H 74.829700 55.804100 40.190200 0
M  V30 12 H 75.618100 56.118400 43.509900 0
M  V30 13 H 76.484000 57.658800 43.473600 0
M  V30 14 R 73.813400 53.700600 41.921500 0
M  V30 END ATOM
M  V30 BEGIN BOND
M  V30 1 1 2 1
M  V30 2 1 3 1
M  V30 3 1 4 3
M  V30 4 1 5 4
M  V30 5 2 6 4
M  V30 6 1 7 2
M  V30 7 1 8 2
M  V30 8 1 9 2
M  V30 9 1 10 3
M  V30 10 1 11 3
M  V30 11 1 12 5
M  V30 12 1 13 5
M  V30 13 1 14 1
M  V30 END BOND
M  V30 END CTAB
M  END
$$$$
R-group 365 (19705-1)
     RDKit          3D

  0  0  0  0  0  0  0  0  0  0999 V3000
M  V30 BEGIN CTAB
M  V30 COUNTS 12 12 0 0 1
M  V30 BEGIN ATOM
M  V30 1 C 74.079900 54.648500 42.042500 0
M  V30 2 C 74.871700 55.332400 42.924200 0
M  V30 3 O 74.790400 56.663100 42.719600 0
M  V30 4 C 73.933400 56.783900 41.688000 0
M  V30 5 C 73.271600 58.058700 41.540400 0
M  V30 6 F 72.873700 58.305100 40.295900 0
M  V30 7 F 72.259400 58.183300 42.378400 0
M  V30 8 C 73.672400 55.603500 41.093100 0
M  V30 9 H 75.443100 55.058600 43.797200 0
M  V30 10 H 73.938900 58.857000 41.823700 0
M  V30 11 H 73.005000 55.461200 40.252800 0
M  V30 12 R 73.690800 53.203600 42.056200 0
M  V30 END ATOM
M  V30 BEGIN BOND
M  V30 1 2 2 1
M  V30 2 1 3 2
M  V30 3 1 4 3
M  V30 4 1 5 4
M  V30 5 1 6 5
M  V30 6 1 7 5
M  V30 7 1 8 1
M  V30 8 2 8 4
M  V30 9 1 9 2
M  V30 10 1 10 5
M  V30 11 1 11 8
M  V30 12 1 12 1
M  V30 END BOND
M  V30 END CTAB
M  END
$$$$
R-group 366 (34867-2)
     RDKit          3D

  0  0  0  0  0  0  0  0  0  0999 V3000
M  V30 BEGIN CTAB
M  V30 COUNTS 21 20 0 0 1
M  V30 BEGIN ATOM
M  V30 1 C 73.618000 55.025700 41.919500 0 CFG=1
M  V30 2 C 72.868600 55.658000 43.095500 0
M  V30 3 C 75.082800 55.495500 41.979900 0
M  V30 4 C 75.297000 56.949800 41.546700 0
M  V30 5 C 76.473100 57.535800 42.308200 0
M  V30 6 C 75.759200 56.988700 40.111100 0
M  V30 7 O 74.085900 57.658000 41.724600 0
M  V30 8 H 73.162100 55.423600 41.012400 0
M  V30 9 H 73.555200 55.678200 43.943100 0
M  V30 10 H 72.472400 56.656500 42.959300 0
M  V30 11 H 71.958800 55.100600 43.308700 0
M  V30 12 H 75.705900 54.854200 41.367500 0
M  V30 13 H 75.473700 55.349100 42.987600 0
M  V30 14 H 77.272300 56.831300 42.124700 0
M  V30 15 H 76.297900 57.649100 43.376500 0
M  V30 16 H 76.872200 58.457500 41.884400 0
M  V30 17 H 76.697100 56.439600 40.124700 0
M  V30 18 H 75.058100 56.518500 39.422300 0
M  V30 19 H 76.047000 57.976200 39.729400 0
M  V30 20 H 73.809200 57.545900 42.620600 0
M  V30 21 R 73.466400 53.482700 41.864500 0
M  V30 END ATOM
M  V30 BEGIN BOND
M  V30 1 1 2 1
M  V30 2 1 3 1
M  V30 3 1 4 3
M  V30 4 1 5 4
M  V30 5 1 6 4
M  V30 6 1 7 4
M  V30 7 1 1 8 CFG=3
M  V30 8 1 9 2
M  V30 9 1 10 2
M  V30 10 1 11 2
M  V30 11 1 12 3
M  V30 12 1 13 3
M  V30 13 1 14 5
M  V30 14 1 15 5
M  V30 15 1 16 5
M  V30 16 1 17 6
M  V30 17 1 18 6
M  V30 18 1 19 6
M  V30 19 1 20 7
M  V30 20 1 21 1
M  V30 END BOND
M  V30 END CTAB
M  END
$$$$
R-group 367 (15080-1)
     RDKit          3D

  0  0  0  0  0  0  0  0  0  0999 V3000
M  V30 BEGIN CTAB
M  V30 COUNTS 19 19 0 0 1
M  V30 BEGIN ATOM
M  V30 1 C 74.267900 55.317000 42.391100 0
M  V30 2 O 75.377100 55.649900 41.997600 0
M  V30 3 N 73.419900 56.207800 42.924700 0
M  V30 4 C 73.587700 57.655900 43.035600 0
M  V30 5 C 72.710600 58.513400 42.083900 0
M  V30 6 C 72.818100 58.334500 40.591300 0
M  V30 7 C 73.943500 57.654000 39.861900 0
M  V30 8 C 72.582200 57.012700 39.895600 0
M  V30 9 H 73.272200 57.915700 44.045500 0
M  V30 10 H 74.637400 57.920800 42.963000 0
M  V30 11 H 71.672200 58.458200 42.362200 0
M  V30 12 H 72.872100 59.573800 42.214100 0
M  V30 13 H 72.472000 59.244900 40.131100 0
M  V30 14 H 74.269400 58.057900 38.925000 0
M  V30 15 H 74.754200 57.259200 40.450000 0
M  V30 16 H 72.472700 56.144200 40.518300 0
M  V30 17 H 72.023600 56.978500 38.964400 0
M  V30 18 H 72.587900 55.820900 43.352600 0
M  V30 19 R 73.800500 53.838600 42.313200 0
M  V30 END ATOM
M  V30 BEGIN BOND
M  V30 1 2 2 1
M  V30 2 1 3 1
M  V30 3 1 4 3
M  V30 4 1 5 4
M  V30 5 1 6 5
M  V30 6 1 7 6
M  V30 7 1 8 6
M  V30 8 1 8 7
M  V30 9 1 9 4
M  V30 10 1 10 4
M  V30 11 1 11 5
M  V30 12 1 12 5
M  V30 13 1 13 6
M  V30 14 1 14 7
M  V30 15 1 15 7
M  V30 16 1 16 8
M  V30 17 1 17 8
M  V30 18 1 18 3
M  V30 19 1 19 1
M  V30 END BOND
M  V30 END CTAB
M  END
$$$$
R-group 368 (15438-1)
     RDKit          3D

  0  0  0  0  0  0  0  0  0  0999 V3000
M  V30 BEGIN CTAB
M  V30 COUNTS 14 14 0 0 1
M  V30 BEGIN ATOM
M  V30 1 C 74.232800 54.655700 41.646700 0
M  V30 2 N 75.270800 55.156200 40.960400 0
M  V30 3 C 75.470100 56.484100 41.323900 0
M  V30 4 C 76.594800 57.270100 40.751900 0
M  V30 5 C 74.541500 56.886000 42.244900 0
M  V30 6 C 74.160800 58.057900 42.950600 0
M  V30 7 S 73.714700 55.657200 42.921700 0
M  V30 8 H 76.271500 58.062000 40.066300 0
M  V30 9 H 77.268800 57.685900 41.510000 0
M  V30 10 H 77.211600 56.644200 40.131800 0
M  V30 11 H 74.932300 58.057600 43.724300 0
M  V30 12 H 74.064200 58.857200 42.245400 0
M  V30 13 H 73.180500 57.991500 43.465100 0
M  V30 14 R 73.749000 53.264900 41.702100 0
M  V30 END ATOM
M  V30 BEGIN BOND
M  V30 1 2 2 1
M  V30 2 1 3 2
M  V30 3 1 4 3
M  V30 4 2 5 3
M  V30 5 1 6 5
M  V30 6 1 7 1
M  V30 7 1 7 5
M  V30 8 1 8 4
M  V30 9 1 9 4
M  V30 10 1 10 4
M  V30 11 1 11 6
M  V30 12 1 12 6
M  V30 13 1 13 6
M  V30 14 1 14 1
M  V30 END BOND
M  V30 END CTAB
M  END
$$$$
R-group 369 (15107-2)
     RDKit          3D

  0  0  0  0  0  0  0  0  0  0999 V3000
M  V30 BEGIN CTAB
M  V30 COUNTS 14 13 0 0 1
M  V30 BEGIN ATOM
M  V30 1 N 74.455400 55.369900 42.798300 0
M  V30 2 C 75.876000 55.658000 42.796500 0
M  V30 3 C 73.672200 56.484800 42.305000 0 CFG=1
M  V30 4 C 73.731900 57.774300 43.118300 0
M  V30 5 C 73.860400 56.705500 40.860700 0
M  V30 6 N 74.005700 56.858000 39.724800 0
M  V30 7 H 76.117000 56.716900 42.795300 0
M  V30 8 H 76.307700 55.258000 43.724600 0
M  V30 9 H 76.316500 55.260300 41.885600 0
M  V30 10 H 72.673600 56.157700 42.524700 0
M  V30 11 H 73.293100 58.578400 42.524700 0
M  V30 12 H 73.144100 57.680900 44.031500 0
M  V30 13 H 74.739300 58.058000 43.398300 0
M  V30 14 R 73.973000 54.006400 42.415000 0
M  V30 END ATOM
M  V30 BEGIN BOND
M  V30 1 1 2 1
M  V30 2 1 3 1
M  V30 3 1 4 3
M  V30 4 1 5 3
M  V30 5 3 6 5
M  V30 6 1 7 2
M  V30 7 1 8 2
M  V30 8 1 9 2
M  V30 9 1 3 10 CFG=3
M  V30 10 1 11 4
M  V30 11 1 12 4
M  V30 12 1 13 4
M  V30 13 1 14 1
M  V30 END BOND
M  V30 END CTAB
M  END
$$$$
R-group 370 (12047-2)
     RDKit          3D

  0  0  0  0  0  0  0  0  0  0999 V3000
M  V30 BEGIN CTAB
M  V30 COUNTS 16 17 0 0 1
M  V30 BEGIN ATOM
M  V30 1 C 74.758000 54.968700 42.084900 0 CFG=2
M  V30 2 C 74.789100 55.702200 43.454700 0
M  V30 3 C 73.894100 56.961400 43.324700 0
M  V30 4 C 73.672200 57.040200 41.891700 0
M  V30 5 C 73.041200 57.819800 40.970200 0
M  V30 6 N 73.272300 57.257600 39.724900 0
M  V30 7 C 73.986100 56.170300 39.945700 0
M  V30 8 N 74.176900 55.965900 41.247900 0
M  V30 9 H 75.771300 54.804500 41.725100 0
M  V30 10 H 74.473100 55.102100 44.303500 0
M  V30 11 H 75.813800 56.016000 43.658200 0
M  V30 12 H 72.942900 56.829000 43.843500 0
M  V30 13 H 74.379400 57.866000 43.690700 0
M  V30 14 H 72.484200 58.737200 41.093200 0
M  V30 15 H 74.308300 55.519900 39.149900 0
M  V30 16 R 73.951600 53.638200 42.103200 0
M  V30 END ATOM
M  V30 BEGIN BOND
M  V30 1 1 2 1
M  V30 2 1 3 2
M  V30 3 1 4 3
M  V30 4 2 5 4
M  V30 5 1 6 5
M  V30 6 2 7 6
M  V30 7 1 8 1
M  V30 8 1 8 4
M  V30 9 1 8 7
M  V30 10 1 1 9 CFG=3
M  V30 11 1 10 2
M  V30 12 1 11 2
M  V30 13 1 12 3
M  V30 14 1 13 3
M  V30 15 1 14 5
M  V30 16 1 15 7
M  V30 17 1 16 1
M  V30 END BOND
M  V30 END CTAB
M  END
$$$$
R-group 371 (40496-1)
     RDKit          3D

  0  0  0  0  0  0  0  0  0  0999 V3000
M  V30 BEGIN CTAB
M  V30 COUNTS 15 14 0 0 1
M  V30 BEGIN ATOM
M  V30 1 C 74.113800 55.162300 42.937700 0 CFG=2
M  V30 2 C 73.011800 56.226100 43.002400 0
M  V30 3 C 75.443800 55.664800 42.364800 0
M  V30 4 C 75.405800 56.496600 41.095300 0
M  V30 5 N 76.472200 57.258000 40.924700 0
M  V30 6 O 74.494200 56.457200 40.272800 0
M  V30 7 H 74.355400 55.069800 43.994500 0
M  V30 8 H 72.872300 56.735600 42.054100 0
M  V30 9 H 72.072300 55.780100 43.324700 0
M  V30 10 H 73.267500 57.001300 43.724700 0
M  V30 11 H 75.965200 56.235700 43.135700 0
M  V30 12 H 76.072200 54.818800 42.124700 0
M  V30 13 H 77.201400 57.280900 41.620600 0
M  V30 14 H 76.557900 57.804400 40.081400 0
M  V30 15 R 73.692900 53.728500 42.459300 0
M  V30 END ATOM
M  V30 BEGIN BOND
M  V30 1 1 2 1
M  V30 2 1 3 1
M  V30 3 1 4 3
M  V30 4 1 5 4
M  V30 5 2 6 4
M  V30 6 1 1 7 CFG=1
M  V30 7 1 8 2
M  V30 8 1 9 2
M  V30 9 1 10 2
M  V30 10 1 11 3
M  V30 11 1 12 3
M  V30 12 1 13 5
M  V30 13 1 14 5
M  V30 14 1 15 1
M  V30 END BOND
M  V30 END CTAB
M  END
$$$$
R-group 372 (1418-1)
     RDKit          3D

  0  0  0  0  0  0  0  0  0  0999 V3000
M  V30 BEGIN CTAB
M  V30 COUNTS 17 16 0 0 1
M  V30 BEGIN ATOM
M  V30 1 C 73.588300 57.752700 43.264600 0
M  V30 2 C 73.491100 57.651200 41.741500 0
M  V30 3 S 74.777000 56.576000 40.957100 0
M  V30 4 O 76.072400 57.258000 40.923500 0
M  V30 5 O 74.180900 56.027200 39.730600 0
M  V30 6 C 75.057000 55.277900 42.163400 0
M  V30 7 C 73.772200 54.637900 42.632800 0
M  V30 8 H 72.872100 58.461400 43.647300 0
M  V30 9 H 73.295700 56.835500 43.760200 0
M  V30 10 H 74.585900 58.057600 43.584500 0
M  V30 11 H 73.571800 58.639000 41.311700 0
M  V30 12 H 72.523400 57.260200 41.438600 0
M  V30 13 H 75.597000 55.736800 42.994200 0
M  V30 14 H 75.743800 54.566700 41.727500 0
M  V30 15 H 72.873400 55.200200 42.395000 0
M  V30 16 H 73.929900 54.704800 43.701900 0
M  V30 17 R 73.587800 53.194100 42.196400 0
M  V30 END ATOM
M  V30 BEGIN BOND
M  V30 1 1 2 1
M  V30 2 1 3 2
M  V30 3 2 4 3
M  V30 4 2 5 3
M  V30 5 1 6 3
M  V30 6 1 7 6
M  V30 7 1 8 1
M  V30 8 1 9 1
M  V30 9 1 10 1
M  V30 10 1 11 2
M  V30 11 1 12 2
M  V30 12 1 13 6
M  V30 13 1 14 6
M  V30 14 1 15 7
M  V30 15 1 16 7
M  V30 16 1 17 7
M  V30 END BOND
M  V30 END CTAB
M  END
$$$$
R-group 373 (1947-1)
     RDKit          3D

  0  0  0  0  0  0  0  0  0  0999 V3000
M  V30 BEGIN CTAB
M  V30 COUNTS 18 17 0 0 1
M  V30 BEGIN ATOM
M  V30 1 C 72.930300 54.123200 42.367000 0
M  V30 2 C 74.047800 55.177800 42.523400 0
M  V30 3 O 74.872500 55.032500 43.415400 0
M  V30 4 N 74.070700 56.191200 41.659100 0
M  V30 5 C 75.051700 57.258400 41.544100 0
M  V30 6 C 75.608000 57.257200 40.124800 0
M  V30 7 C 76.223300 57.236600 42.536700 0
M  V30 8 H 72.062400 54.458300 41.811400 0
M  V30 9 H 72.538500 53.773200 43.317200 0
M  V30 10 H 74.471400 58.159300 41.722900 0
M  V30 11 H 76.347000 58.054100 39.983300 0
M  V30 12 H 76.099000 56.306400 39.941700 0
M  V30 13 H 74.825400 57.380800 39.373600 0
M  V30 14 H 76.893000 58.058000 42.338400 0
M  V30 15 H 75.898200 57.336100 43.573400 0
M  V30 16 H 76.808400 56.325200 42.426100 0
M  V30 17 H 73.324300 56.215100 40.981700 0
M  V30 18 R 73.438500 52.877900 41.680600 0
M  V30 END ATOM
M  V30 BEGIN BOND
M  V30 1 1 2 1
M  V30 2 2 3 2
M  V30 3 1 4 2
M  V30 4 1 5 4
M  V30 5 1 6 5
M  V30 6 1 7 5
M  V30 7 1 8 1
M  V30 8 1 9 1
M  V30 9 1 10 5
M  V30 10 1 11 6
M  V30 11 1 12 6
M  V30 12 1 13 6
M  V30 13 1 14 7
M  V30 14 1 15 7
M  V30 15 1 16 7
M  V30 16 1 17 4
M  V30 17 1 18 1
M  V30 END BOND
M  V30 END CTAB
M  END
$$$$
R-group 374 (2324-1)
     RDKit          3D

  0  0  0  0  0  0  0  0  0  0999 V3000
M  V30 BEGIN CTAB
M  V30 COUNTS 15 15 0 0 1
M  V30 BEGIN ATOM
M  V30 1 C 74.357200 55.020000 43.111900 0 CFG=1
M  V30 2 C 75.668700 55.723300 42.657300 0
M  V30 3 C 75.391600 57.204800 42.394800 0
M  V30 4 S 73.672300 57.240600 41.807600 0
M  V30 5 O 72.911600 58.458000 42.124800 0
M  V30 6 O 73.626600 56.671200 40.454100 0
M  V30 7 C 73.207400 56.001800 43.046100 0
M  V30 8 H 74.472300 54.860500 44.182300 0
M  V30 9 H 76.429300 55.658100 43.435600 0
M  V30 10 H 76.072400 55.262400 41.758600 0
M  V30 11 H 75.442300 57.694500 43.361000 0
M  V30 12 H 76.073400 57.658100 41.676300 0
M  V30 13 H 72.258800 55.500500 42.924700 0
M  V30 14 H 73.115500 56.531900 43.993000 0
M  V30 15 R 73.998000 53.664900 42.409200 0
M  V30 END ATOM
M  V30 BEGIN BOND
M  V30 1 1 2 1
M  V30 2 1 3 2
M  V30 3 1 4 3
M  V30 4 2 5 4
M  V30 5 2 6 4
M  V30 6 1 7 1
M  V30 7 1 7 4
M  V30 8 1 1 8 CFG=1
M  V30 9 1 9 2
M  V30 10 1 10 2
M  V30 11 1 11 3
M  V30 12 1 12 3
M  V30 13 1 13 7
M  V30 14 1 14 7
M  V30 15 1 15 1
M  V30 END BOND
M  V30 END CTAB
M  END
$$$$
R-group 375 (11328-2)
     RDKit          3D

  0  0  0  0  0  0  0  0  0  0999 V3000
M  V30 BEGIN CTAB
M  V30 COUNTS 16 15 0 0 1
M  V30 BEGIN ATOM
M  V30 1 C 72.259500 58.851900 41.840800 0
M  V30 2 O 72.876200 57.819600 41.102100 0
M  V30 3 C 74.108500 57.421100 41.673500 0
M  V30 4 C 74.311300 55.969800 41.238000 0 CFG=1
M  V30 5 O 75.672200 55.770800 40.955000 0
M  V30 6 C 73.767700 55.046800 42.351600 0
M  V30 7 H 71.272800 59.114700 41.446700 0
M  V30 8 H 72.195800 58.628000 42.906500 0
M  V30 9 H 72.867200 59.721900 41.739400 0
M  V30 10 H 74.118400 57.502100 42.765000 0
M  V30 11 H 74.910000 58.058000 41.327700 0
M  V30 12 H 73.785400 55.805700 40.291200 0
M  V30 13 H 72.794400 55.422000 42.625400 0
M  V30 14 H 74.361500 55.177300 43.251700 0
M  V30 15 H 76.175800 56.043100 41.706600 0
M  V30 16 R 73.560400 53.547200 42.029300 0
M  V30 END ATOM
M  V30 BEGIN BOND
M  V30 1 1 2 1
M  V30 2 1 3 2
M  V30 3 1 4 3
M  V30 4 1 5 4
M  V30 5 1 6 4
M  V30 6 1 7 1
M  V30 7 1 8 1
M  V30 8 1 9 1
M  V30 9 1 10 3
M  V30 10 1 11 3
M  V30 11 1 4 12 CFG=3
M  V30 12 1 13 6
M  V30 13 1 14 6
M  V30 14 1 15 5
M  V30 15 1 16 6
M  V30 END BOND
M  V30 END CTAB
M  END
$$$$
R-group 376 (516-1)
     RDKit          3D

  0  0  0  0  0  0  0  0  0  0999 V3000
M  V30 BEGIN CTAB
M  V30 COUNTS 18 17 0 0 1
M  V30 BEGIN ATOM
M  V30 1 C 72.576300 56.494700 43.735600 0
M  V30 2 C 72.839200 57.889200 43.174300 0
M  V30 3 C 73.971800 57.887900 42.183200 0
M  V30 4 C 73.821100 57.241400 40.789600 0
M  V30 5 N 73.673600 55.809600 40.803400 0
M  V30 6 C 74.314600 54.964800 41.613400 0
M  V30 7 O 75.271000 55.297600 42.302400 0
M  V30 8 H 71.846600 56.529000 44.524800 0
M  V30 9 H 72.282800 55.777600 42.984300 0
M  V30 10 H 73.497700 56.057400 44.124700 0
M  V30 11 H 73.162300 58.441300 44.031900 0
M  V30 12 H 71.988300 58.458500 42.776500 0
M  V30 13 H 74.875600 57.603800 42.705400 0
M  V30 14 H 74.069900 58.906900 41.995600 0
M  V30 15 H 74.725900 57.415100 40.212000 0
M  V30 16 H 72.979400 57.668800 40.238100 0
M  V30 17 H 72.889000 55.451500 40.273100 0
M  V30 18 R 73.718300 53.565900 41.740900 0
M  V30 END ATOM
M  V30 BEGIN BOND
M  V30 1 1 2 1
M  V30 2 1 3 2
M  V30 3 1 4 3
M  V30 4 1 5 4
M  V30 5 1 6 5
M  V30 6 2 7 6
M  V30 7 1 8 1
M  V30 8 1 9 1
M  V30 9 1 10 1
M  V30 10 1 11 2
M  V30 11 1 12 2
M  V30 12 1 13 3
M  V30 13 1 14 3
M  V30 14 1 15 4
M  V30 15 1 16 4
M  V30 16 1 17 5
M  V30 17 1 18 6
M  V30 END BOND
M  V30 END CTAB
M  END
$$$$
R-group 377 (7065-2)
     RDKit          3D

  0  0  0  0  0  0  0  0  0  0999 V3000
M  V30 BEGIN CTAB
M  V30 COUNTS 13 12 0 0 1
M  V30 BEGIN ATOM
M  V30 1 C 76.234900 56.946100 40.715000 0
M  V30 2 N 75.672400 55.609900 40.923700 0
M  V30 3 C 74.377700 55.418800 41.556100 0 CFG=2
M  V30 4 C 74.466100 56.020600 42.924500 0
M  V30 5 F 73.228700 56.091100 43.324900 0
M  V30 6 F 75.269200 55.311200 43.724500 0
M  V30 7 F 74.868300 57.258000 42.923200 0
M  V30 8 H 77.138600 56.858900 40.124800 0
M  V30 9 H 75.560100 57.644400 40.215800 0
M  V30 10 H 76.596900 57.398500 41.637000 0
M  V30 11 H 75.690400 55.098600 40.055400 0
M  V30 12 H 73.655100 55.995400 40.975500 0
M  V30 13 R 73.858200 53.921100 41.646200 0
M  V30 END ATOM
M  V30 BEGIN BOND
M  V30 1 1 2 1
M  V30 2 1 3 2
M  V30 3 1 4 3
M  V30 4 1 5 4
M  V30 5 1 6 4
M  V30 6 1 7 4
M  V30 7 1 8 1
M  V30 8 1 9 1
M  V30 9 1 10 1
M  V30 10 1 11 2
M  V30 11 1 3 12 CFG=3
M  V30 12 1 13 3
M  V30 END BOND
M  V30 END CTAB
M  END
$$$$
R-group 378 (16791-2)
     RDKit          3D

  0  0  0  0  0  0  0  0  0  0999 V3000
M  V30 BEGIN CTAB
M  V30 COUNTS 17 17 0 0 1
M  V30 BEGIN ATOM
M  V30 1 O 73.684100 54.794900 41.673700 0
M  V30 2 C 74.811900 55.359000 41.013800 0
M  V30 3 C 74.733000 56.844800 41.310500 0 CFG=2
M  V30 4 C 74.562800 57.028900 42.827300 0
M  V30 5 N 73.273600 57.658000 42.928000 0
M  V30 6 C 72.872400 58.246500 41.800300 0
M  V30 7 O 72.072300 59.192300 41.725000 0
M  V30 8 C 73.485100 57.491700 40.644300 0
M  V30 9 H 75.750800 54.941500 41.377700 0
M  V30 10 H 74.775000 55.257900 39.936900 0
M  V30 11 H 75.636300 57.344100 40.972600 0
M  V30 12 H 74.594100 56.092500 43.385800 0
M  V30 13 H 75.341600 57.655600 43.251500 0
M  V30 14 H 73.695600 58.060600 39.742700 0
M  V30 15 H 72.755700 56.737300 40.340900 0
M  V30 16 H 72.900500 57.925100 43.828800 0
M  V30 17 R 73.536100 53.395200 41.716600 0
M  V30 END ATOM
M  V30 BEGIN BOND
M  V30 1 1 2 1
M  V30 2 1 3 2
M  V30 3 1 4 3
M  V30 4 1 5 4
M  V30 5 1 6 5
M  V30 6 2 7 6
M  V30 7 1 8 3
M  V30 8 1 8 6
M  V30 9 1 9 2
M  V30 10 1 10 2
M  V30 11 1 3 11 CFG=3
M  V30 12 1 12 4
M  V30 13 1 13 4
M  V30 14 1 14 8
M  V30 15 1 15 8
M  V30 16 1 16 5
M  V30 17 1 17 1
M  V30 END BOND
M  V30 END CTAB
M  END
$$$$
R-group 379 (16955-1)
     RDKit          3D

  0  0  0  0  0  0  0  0  0  0999 V3000
M  V30 BEGIN CTAB
M  V30 COUNTS 12 11 0 0 1
M  V30 BEGIN ATOM
M  V30 1 C 73.766700 54.985300 42.696100 0
M  V30 2 N 74.901800 55.565400 42.036400 0
M  V30 3 C 74.849200 56.466900 41.063500 0
M  V30 4 O 73.812500 56.846900 40.521800 0
M  V30 5 C 76.203500 56.998700 40.644500 0
M  V30 6 F 76.861300 57.469100 41.706100 0
M  V30 7 F 76.872400 55.979000 40.124700 0
M  V30 8 H 72.872200 55.579300 42.541000 0
M  V30 9 H 74.055600 55.110600 43.728200 0
M  V30 10 H 75.815200 55.313100 42.385000 0
M  V30 11 H 76.122600 57.800100 39.919900 0
M  V30 12 R 73.543900 53.499000 42.347400 0
M  V30 END ATOM
M  V30 BEGIN BOND
M  V30 1 1 2 1
M  V30 2 1 3 2
M  V30 3 2 4 3
M  V30 4 1 5 3
M  V30 5 1 6 5
M  V30 6 1 7 5
M  V30 7 1 8 1
M  V30 8 1 9 1
M  V30 9 1 10 2
M  V30 10 1 11 5
M  V30 11 1 12 1
M  V30 END BOND
M  V30 END CTAB
M  END
$$$$
R-group 380 (13706-1)
     RDKit          3D

  0  0  0  0  0  0  0  0  0  0999 V3000
M  V30 BEGIN CTAB
M  V30 COUNTS 16 16 0 0 1
M  V30 BEGIN ATOM
M  V30 1 N 73.843900 54.531300 41.911300 0
M  V30 2 C 74.471700 55.280800 42.827500 0
M  V30 3 N 74.513500 56.552300 42.533800 0
M  V30 4 C 73.829200 56.632100 41.339900 0
M  V30 5 C 73.672500 57.937100 40.724000 0
M  V30 6 C 72.395400 58.715800 40.801000 0
M  V30 7 O 72.072400 59.257200 42.056300 0
M  V30 8 C 73.518900 55.392500 40.874900 0
M  V30 9 H 74.877500 54.917200 43.760800 0
M  V30 10 H 74.359100 58.458000 41.350900 0
M  V30 11 H 74.026800 57.890800 39.690100 0
M  V30 12 H 72.471400 59.560700 40.125200 0
M  V30 13 H 71.675200 58.054200 40.392200 0
M  V30 14 H 73.022500 55.101800 39.959800 0
M  V30 15 H 71.123600 59.318700 42.125000 0
M  V30 16 R 73.534700 53.129400 42.010700 0
M  V30 END ATOM
M  V30 BEGIN BOND
M  V30 1 1 2 1
M  V30 2 2 3 2
M  V30 3 1 4 3
M  V30 4 1 5 4
M  V30 5 1 6 5
M  V30 6 1 7 6
M  V30 7 1 8 1
M  V30 8 2 8 4
M  V30 9 1 9 2
M  V30 10 1 10 5
M  V30 11 1 11 5
M  V30 12 1 12 6
M  V30 13 1 13 6
M  V30 14 1 14 8
M  V30 15 1 15 7
M  V30 16 1 16 1
M  V30 END BOND
M  V30 END CTAB
M  END
$$$$
R-group 381 (20667-1)
     RDKit          3D

  0  0  0  0  0  0  0  0  0  0999 V3000
M  V30 BEGIN CTAB
M  V30 COUNTS 12 11 0 0 1
M  V30 BEGIN ATOM
M  V30 1 N 72.848200 53.851100 42.123800 0
M  V30 2 C 73.671800 54.888600 42.235700 0
M  V30 3 O 74.791000 54.946100 41.726100 0
M  V30 4 C 73.115700 55.995100 43.102100 0
M  V30 5 C 73.636800 57.270500 42.594600 0
M  V30 6 F 72.890800 58.057900 43.324200 0
M  V30 7 F 74.933500 57.257900 42.923400 0
M  V30 8 F 73.432300 57.505500 41.294300 0
M  V30 9 H 72.068700 55.912200 43.269400 0
M  V30 10 H 73.271100 56.058000 44.175100 0
M  V30 11 H 71.948400 53.890400 42.587600 0
M  V30 12 R 73.264500 52.599000 41.594700 0
M  V30 END ATOM
M  V30 BEGIN BOND
M  V30 1 1 2 1
M  V30 2 2 3 2
M  V30 3 1 4 2
M  V30 4 1 5 4
M  V30 5 1 6 5
M  V30 6 1 7 5
M  V30 7 1 8 5
M  V30 8 1 9 4
M  V30 9 1 10 4
M  V30 10 1 11 1
M  V30 11 1 12 1
M  V30 END BOND
M  V30 END CTAB
M  END
$$$$
R-group 382 (39098-2)
     RDKit          3D

  0  0  0  0  0  0  0  0  0  0999 V3000
M  V30 BEGIN CTAB
M  V30 COUNTS 18 17 0 0 1
M  V30 BEGIN ATOM
M  V30 1 C 74.430900 57.657400 39.413700 0
M  V30 2 C 73.766200 56.318800 39.366600 0
M  V30 3 C 72.872300 56.213700 40.579000 0
M  V30 4 C 73.499300 56.048500 41.991100 0 CFG=2
M  V30 5 O 74.072300 57.258200 42.418900 0
M  V30 6 C 74.502900 54.913200 42.118000 0
M  V30 7 H 74.872100 58.057700 38.524800 0
M  V30 8 H 73.671500 58.404100 39.677400 0
M  V30 9 H 75.219000 57.611200 40.167500 0
M  V30 10 H 74.475900 55.512700 39.263100 0
M  V30 11 H 73.101400 56.282000 38.524100 0
M  V30 12 H 72.153800 55.421300 40.399800 0
M  V30 13 H 72.227100 57.095600 40.530000 0
M  V30 14 H 72.750500 55.845000 42.753800 0
M  V30 15 H 74.978400 55.037600 43.093100 0
M  V30 16 H 75.319500 55.034900 41.408000 0
M  V30 17 H 74.356800 57.158200 43.314900 0
M  V30 18 R 73.871300 53.497300 42.055800 0
M  V30 END ATOM
M  V30 BEGIN BOND
M  V30 1 1 2 1
M  V30 2 1 3 2
M  V30 3 1 4 3
M  V30 4 1 5 4
M  V30 5 1 6 4
M  V30 6 1 7 1
M  V30 7 1 8 1
M  V30 8 1 9 1
M  V30 9 1 10 2
M  V30 10 1 11 2
M  V30 11 1 12 3
M  V30 12 1 13 3
M  V30 13 1 4 14 CFG=1
M  V30 14 1 15 6
M  V30 15 1 16 6
M  V30 16 1 17 5
M  V30 17 1 18 6
M  V30 END BOND
M  V30 END CTAB
M  END
$$$$
R-group 383 (6792-1)
     RDKit          3D

  0  0  0  0  0  0  0  0  0  0999 V3000
M  V30 BEGIN CTAB
M  V30 COUNTS 13 12 0 0 1
M  V30 BEGIN ATOM
M  V30 1 C 73.942800 57.029600 38.992400 0
M  V30 2 N 74.196400 56.527200 40.322400 0
M  V30 3 C 73.672400 57.034600 41.441900 0
M  V30 4 O 72.987900 58.057900 41.472200 0
M  V30 5 C 73.947000 56.255800 42.721700 0
M  V30 6 O 74.658100 55.062200 42.418200 0
M  V30 7 H 74.473100 56.442800 38.244500 0
M  V30 8 H 72.876400 57.000900 38.763900 0
M  V30 9 H 74.286200 58.057900 38.924800 0
M  V30 10 H 73.034200 56.080000 43.293500 0
M  V30 11 H 74.599200 56.884700 43.324600 0
M  V30 12 H 74.754400 55.690500 40.423800 0
M  V30 13 R 73.924800 53.841900 42.333200 0
M  V30 END ATOM
M  V30 BEGIN BOND
M  V30 1 1 2 1
M  V30 2 1 3 2
M  V30 3 2 4 3
M  V30 4 1 5 3
M  V30 5 1 6 5
M  V30 6 1 7 1
M  V30 7 1 8 1
M  V30 8 1 9 1
M  V30 9 1 10 5
M  V30 10 1 11 5
M  V30 11 1 12 2
M  V30 12 1 13 6
M  V30 END BOND
M  V30 END CTAB
M  END
$$$$
R-group 384 (3236-1)
     RDKit          3D

  0  0  0  0  0  0  0  0  0  0999 V3000
M  V30 BEGIN CTAB
M  V30 COUNTS 17 17 0 0 1
M  V30 BEGIN ATOM
M  V30 1 O 73.668800 54.653500 41.751600 0
M  V30 2 C 73.456500 55.443100 42.911400 0
M  V30 3 C 74.686000 55.257900 43.836300 0
M  V30 4 C 75.900900 55.931100 43.241000 0
M  V30 5 O 75.647100 57.257700 42.924400 0
M  V30 6 C 74.621400 57.416300 41.956900 0
M  V30 7 C 73.327000 56.937100 42.567800 0
M  V30 8 H 72.486600 55.208500 43.324700 0
M  V30 9 H 74.481600 55.258000 44.906100 0
M  V30 10 H 75.162200 54.328500 43.807000 0
M  V30 11 H 76.772700 55.832900 43.889300 0
M  V30 12 H 76.072100 55.423200 42.289400 0
M  V30 13 H 74.462800 58.457500 41.724700 0
M  V30 14 H 74.864500 56.908500 41.020700 0
M  V30 15 H 72.520100 57.235500 41.895700 0
M  V30 16 H 73.141200 57.495600 43.486900 0
M  V30 17 R 73.407200 53.248400 41.852300 0
M  V30 END ATOM
M  V30 BEGIN BOND
M  V30 1 1 2 1
M  V30 2 1 3 2
M  V30 3 1 4 3
M  V30 4 1 5 4
M  V30 5 1 6 5
M  V30 6 1 7 2
M  V30 7 1 7 6
M  V30 8 1 8 2
M  V30 9 1 9 3
M  V30 10 1 10 3
M  V30 11 1 11 4
M  V30 12 1 12 4
M  V30 13 1 13 6
M  V30 14 1 14 6
M  V30 15 1 15 7
M  V30 16 1 16 7
M  V30 17 1 17 1
M  V30 END BOND
M  V30 END CTAB
M  END
$$$$
R-group 385 (22941-1)
     RDKit          3D

  0  0  0  0  0  0  0  0  0  0999 V3000
M  V30 BEGIN CTAB
M  V30 COUNTS 17 17 0 0 1
M  V30 BEGIN ATOM
M  V30 1 O 73.834900 54.699300 42.198700 0
M  V30 2 C 75.192900 55.124100 42.297500 0
M  V30 3 C 75.261000 56.562700 41.833600 0 CFG=1
M  V30 4 C 75.044600 56.732300 40.312000 0
M  V30 5 C 73.580700 57.125000 40.150500 0
M  V30 6 C 73.272400 57.660400 41.531500 0
M  V30 7 O 72.472300 58.570900 41.725100 0
M  V30 8 N 74.150100 57.257800 42.433600 0
M  V30 9 H 75.529100 55.048500 43.332400 0
M  V30 10 H 75.862000 54.536600 41.689000 0
M  V30 11 H 76.209800 57.010800 42.134700 0
M  V30 12 H 75.682900 57.532600 39.934800 0
M  V30 13 H 75.278500 55.850800 39.726100 0
M  V30 14 H 73.436200 57.872500 39.369600 0
M  V30 15 H 72.943300 56.266400 39.945400 0
M  V30 16 H 74.158000 57.574800 43.391600 0
M  V30 17 R 73.566200 53.320700 42.051700 0
M  V30 END ATOM
M  V30 BEGIN BOND
M  V30 1 1 2 1
M  V30 2 1 3 2
M  V30 3 1 4 3
M  V30 4 1 5 4
M  V30 5 1 6 5
M  V30 6 2 7 6
M  V30 7 1 8 3
M  V30 8 1 8 6
M  V30 9 1 9 2
M  V30 10 1 10 2
M  V30 11 1 3 11 CFG=1
M  V30 12 1 12 4
M  V30 13 1 13 4
M  V30 14 1 14 5
M  V30 15 1 15 5
M  V30 16 1 16 8
M  V30 17 1 17 1
M  V30 END BOND
M  V30 END CTAB
M  END
$$$$
R-group 386 (17269-1)
     RDKit          3D

  0  0  0  0  0  0  0  0  0  0999 V3000
M  V30 BEGIN CTAB
M  V30 COUNTS 15 15 0 0 1
M  V30 BEGIN ATOM
M  V30 1 N 73.265600 54.440400 42.097100 0
M  V30 2 C 73.063700 55.217000 40.873700 0
M  V30 3 C 73.846700 56.336700 41.563000 0
M  V30 4 C 74.831700 56.857500 40.536400 0
M  V30 5 N 76.071600 57.167400 40.934000 0
M  V30 6 O 74.471400 56.869500 39.359100 0
M  V30 7 C 74.435600 55.231800 42.448600 0
M  V30 8 H 73.609000 54.815800 40.038600 0
M  V30 9 H 72.044400 55.356200 40.524700 0
M  V30 10 H 73.232900 57.078500 42.074500 0
M  V30 11 H 76.323000 57.117400 41.910600 0
M  V30 12 H 74.453800 55.431700 43.523700 0
M  V30 13 H 75.353400 54.791300 42.059600 0
M  V30 14 H 76.755700 57.432300 40.239100 0
M  V30 15 R 73.415300 52.991100 41.918900 0
M  V30 END ATOM
M  V30 BEGIN BOND
M  V30 1 1 2 1
M  V30 2 1 3 2
M  V30 3 1 4 3
M  V30 4 1 5 4
M  V30 5 2 6 4
M  V30 6 1 7 1
M  V30 7 1 7 3
M  V30 8 1 8 2
M  V30 9 1 9 2
M  V30 10 1 10 3
M  V30 11 1 11 5
M  V30 12 1 12 7
M  V30 13 1 13 7
M  V30 14 1 14 5
M  V30 15 1 15 1
M  V30 END BOND
M  V30 END CTAB
M  END
$$$$
R-group 387 (10205-1)
     RDKit          3D

  0  0  0  0  0  0  0  0  0  0999 V3000
M  V30 BEGIN CTAB
M  V30 COUNTS 15 14 0 0 1
M  V30 BEGIN ATOM
M  V30 1 C 73.256700 54.647600 42.316700 0
M  V30 2 C 73.272100 55.782100 41.274200 0
M  V30 3 C 73.150500 57.117600 41.989700 0 CFG=1
M  V30 4 O 74.439600 57.258000 42.521900 0
M  V30 5 C 72.614100 58.236500 41.054000 0
M  V30 6 F 72.074700 59.257600 41.725900 0
M  V30 7 H 72.339800 54.676300 42.910400 0
M  V30 8 H 74.029700 54.870600 43.050800 0
M  V30 9 H 74.206100 55.795500 40.706600 0
M  V30 10 H 72.482000 55.648800 40.525800 0
M  V30 11 H 72.474700 57.032100 42.840800 0
M  V30 12 H 73.286100 58.615300 40.311000 0
M  V30 13 H 71.830900 57.858000 40.412100 0
M  V30 14 H 74.579600 56.562200 43.142700 0
M  V30 15 R 73.465600 53.224700 41.771800 0
M  V30 END ATOM
M  V30 BEGIN BOND
M  V30 1 1 2 1
M  V30 2 1 3 2
M  V30 3 1 4 3
M  V30 4 1 5 3
M  V30 5 1 6 5
M  V30 6 1 7 1
M  V30 7 1 8 1
M  V30 8 1 9 2
M  V30 9 1 10 2
M  V30 10 1 3 11 CFG=1
M  V30 11 1 12 5
M  V30 12 1 13 5
M  V30 13 1 14 4
M  V30 14 1 15 1
M  V30 END BOND
M  V30 END CTAB
M  END
$$$$
R-group 388 (10321-1)
     RDKit          3D

  0  0  0  0  0  0  0  0  0  0999 V3000
M  V30 BEGIN CTAB
M  V30 COUNTS 21 20 0 0 1
M  V30 BEGIN ATOM
M  V30 1 C 75.844900 57.272200 43.502700 0
M  V30 2 C 74.597400 57.261700 42.612900 0
M  V30 3 C 74.796100 56.455800 41.320000 0
M  V30 4 C 73.778200 56.831600 40.215900 0
M  V30 5 C 74.012200 56.146600 38.866800 0
M  V30 6 O 74.708400 55.081500 41.658800 0
M  V30 7 C 73.481800 54.676800 42.253800 0
M  V30 8 H 75.672200 57.868900 44.396900 0
M  V30 9 H 76.120300 56.267700 43.815200 0
M  V30 10 H 76.695900 57.708400 42.981300 0
M  V30 11 H 74.325400 58.282200 42.362400 0
M  V30 12 H 73.758600 56.869100 43.183500 0
M  V30 13 H 75.799800 56.669900 40.945700 0
M  V30 14 H 72.771800 56.616600 40.554400 0
M  V30 15 H 73.790000 57.908400 40.056300 0
M  V30 16 H 73.282000 56.466800 38.136200 0
M  V30 17 H 74.993500 56.368900 38.472900 0
M  V30 18 H 73.877900 55.113300 38.906000 0
M  V30 19 H 72.678300 55.240600 41.838000 0
M  V30 20 H 73.494600 54.882200 43.315200 0
M  V30 21 R 73.258800 53.200500 42.007200 0
M  V30 END ATOM
M  V30 BEGIN BOND
M  V30 1 1 2 1
M  V30 2 1 3 2
M  V30 3 1 4 3
M  V30 4 1 5 4
M  V30 5 1 6 3
M  V30 6 1 7 6
M  V30 7 1 8 1
M  V30 8 1 9 1
M  V30 9 1 10 1
M  V30 10 1 11 2
M  V30 11 1 12 2
M  V30 12 1 13 3
M  V30 13 1 14 4
M  V30 14 1 15 4
M  V30 15 1 16 5
M  V30 16 1 17 5
M  V30 17 1 18 5
M  V30 18 1 19 7
M  V30 19 1 20 7
M  V30 20 1 21 7
M  V30 END BOND
M  V30 END CTAB
M  END
$$$$
R-group 389 (2242-1)
     RDKit          3D

  0  0  0  0  0  0  0  0  0  0999 V3000
M  V30 BEGIN CTAB
M  V30 COUNTS 10 9 0 0 1
M  V30 BEGIN ATOM
M  V30 1 O 74.044600 55.318600 42.033200 0
M  V30 2 C 73.545500 55.983000 43.182800 0
M  V30 3 C 73.828000 57.474800 43.066200 0
M  V30 4 O 73.271800 57.976600 41.875500 0
M  V30 5 H 72.476100 55.819400 43.319100 0
M  V30 6 H 74.068500 55.604200 44.057000 0
M  V30 7 H 73.335100 57.995000 43.885000 0
M  V30 8 H 74.899300 57.658000 43.116500 0
M  V30 9 H 72.357800 57.739200 41.850200 0
M  V30 10 R 73.638700 53.961100 41.908500 0
M  V30 END ATOM
M  V30 BEGIN BOND
M  V30 1 1 2 1
M  V30 2 1 3 2
M  V30 3 1 4 3
M  V30 4 1 5 2
M  V30 5 1 6 2
M  V30 6 1 7 3
M  V30 7 1 8 3
M  V30 8 1 9 4
M  V30 9 1 10 1
M  V30 END BOND
M  V30 END CTAB
M  END
$$$$
R-group 390 (6718-1)
     RDKit          3D

  0  0  0  0  0  0  0  0  0  0999 V3000
M  V30 BEGIN CTAB
M  V30 COUNTS 16 16 0 0 1
M  V30 BEGIN ATOM
M  V30 1 C 73.488700 54.394200 42.924700 0
M  V30 2 C 74.184000 55.461100 42.226600 0
M  V30 3 C 75.341000 56.069200 42.735600 0
M  V30 4 C 76.081300 56.858000 41.858900 0
M  V30 5 C 75.727300 56.915100 40.524800 0
M  V30 6 C 74.483700 56.457800 40.153000 0
M  V30 7 O 74.071900 56.458100 38.919900 0
M  V30 8 C 73.671900 55.801500 41.007200 0
M  V30 9 H 72.443900 54.718700 42.957000 0
M  V30 10 H 74.072300 54.457000 43.850700 0
M  V30 11 H 75.719700 55.873600 43.728600 0
M  V30 12 H 77.020300 57.307500 42.128100 0
M  V30 13 H 76.356100 57.437800 39.824200 0
M  V30 14 H 72.729200 55.418000 40.662000 0
M  V30 15 H 73.156900 56.249500 38.826200 0
M  V30 16 R 73.540100 52.981400 42.319200 0
M  V30 END ATOM
M  V30 BEGIN BOND
M  V30 1 1 2 1
M  V30 2 2 3 2
M  V30 3 1 4 3
M  V30 4 2 5 4
M  V30 5 1 6 5
M  V30 6 1 7 6
M  V30 7 1 8 2
M  V30 8 2 8 6
M  V30 9 1 9 1
M  V30 10 1 10 1
M  V30 11 1 11 3
M  V30 12 1 12 4
M  V30 13 1 13 5
M  V30 14 1 14 8
M  V30 15 1 15 7
M  V30 16 1 16 1
M  V30 END BOND
M  V30 END CTAB
M  END
$$$$
R-group 391 (8817-2)
     RDKit          3D

  0  0  0  0  0  0  0  0  0  0999 V3000
M  V30 BEGIN CTAB
M  V30 COUNTS 19 19 0 0 1
M  V30 BEGIN ATOM
M  V30 1 C 73.597000 54.623000 42.144500 0
M  V30 2 C 75.048900 55.146300 42.120200 0
M  V30 3 C 75.101200 56.613000 41.753900 0 CFG=1
M  V30 4 C 74.765700 56.860000 40.262400 0
M  V30 5 C 73.433300 57.612100 40.263200 0
M  V30 6 C 73.272200 58.003300 41.724600 0
M  V30 7 O 72.472100 58.856200 42.109700 0
M  V30 8 N 74.076900 57.307100 42.505300 0
M  V30 9 H 72.986600 55.103500 41.382600 0
M  V30 10 H 73.158000 54.942500 43.081800 0
M  V30 11 H 75.501300 55.009800 43.104300 0
M  V30 12 H 75.672300 54.596400 41.430400 0
M  V30 13 H 76.083100 57.024500 41.988500 0
M  V30 14 H 75.541400 57.445000 39.766000 0
M  V30 15 H 74.674800 55.932400 39.695000 0
M  V30 16 H 73.423200 58.465800 39.589500 0
M  V30 17 H 72.607900 56.958100 39.981100 0
M  V30 18 H 74.121800 57.426400 43.506100 0
M  V30 19 R 73.440700 53.119800 41.984200 0
M  V30 END ATOM
M  V30 BEGIN BOND
M  V30 1 1 2 1
M  V30 2 1 3 2
M  V30 3 1 4 3
M  V30 4 1 5 4
M  V30 5 1 6 5
M  V30 6 2 7 6
M  V30 7 1 8 3
M  V30 8 1 8 6
M  V30 9 1 9 1
M  V30 10 1 10 1
M  V30 11 1 11 2
M  V30 12 1 12 2
M  V30 13 1 3 13 CFG=1
M  V30 14 1 14 4
M  V30 15 1 15 4
M  V30 16 1 16 5
M  V30 17 1 17 5
M  V30 18 1 18 8
M  V30 19 1 19 1
M  V30 END BOND
M  V30 END CTAB
M  END
$$$$
R-group 392 (16161-1)
     RDKit          3D

  0  0  0  0  0  0  0  0  0  0999 V3000
M  V30 BEGIN CTAB
M  V30 COUNTS 19 19 0 0 1
M  V30 BEGIN ATOM
M  V30 1 O 72.918900 54.021200 42.496500 0
M  V30 2 C 73.435300 55.362600 42.386700 0 CFG=2
M  V30 3 C 74.967700 55.531300 42.236800 0
M  V30 4 C 75.150800 57.045600 42.646600 0
M  V30 5 C 73.748000 57.569000 43.058000 0 CFG=1
M  V30 6 C 72.994400 58.280700 41.899900 0
M  V30 7 C 73.068100 56.301700 43.507600 0
M  V30 8 H 72.941600 55.740900 41.486400 0
M  V30 9 H 75.592600 54.927100 42.911500 0
M  V30 10 H 75.388800 55.377100 41.234300 0
M  V30 11 H 75.834600 57.100600 43.508400 0
M  V30 12 H 75.643800 57.580100 41.850300 0
M  V30 13 H 73.666300 58.231000 43.877400 0
M  V30 14 H 73.060000 57.753400 40.951400 0
M  V30 15 H 71.945000 58.444700 42.133200 0
M  V30 16 H 73.413400 59.242700 41.740700 0
M  V30 17 H 72.070500 56.453200 43.573700 0
M  V30 18 H 73.272200 56.058200 44.496600 0
M  V30 19 R 73.437900 52.986500 41.788900 0
M  V30 END ATOM
M  V30 BEGIN BOND
M  V30 1 1 2 1
M  V30 2 1 3 2
M  V30 3 1 4 3
M  V30 4 1 5 4
M  V30 5 1 6 5
M  V30 6 1 7 2
M  V30 7 1 7 5
M  V30 8 1 2 8 CFG=3
M  V30 9 1 9 3
M  V30 10 1 10 3
M  V30 11 1 11 4
M  V30 12 1 12 4
M  V30 13 1 5 13 CFG=1
M  V30 14 1 14 6
M  V30 15 1 15 6
M  V30 16 1 16 6
M  V30 17 1 17 7
M  V30 18 1 18 7
M  V30 19 1 19 1
M  V30 END BOND
M  V30 END CTAB
M  END
$$$$
R-group 393 (31838-1)
     RDKit          3D

  0  0  0  0  0  0  0  0  0  0999 V3000
M  V30 BEGIN CTAB
M  V30 COUNTS 17 17 0 0 1
M  V30 BEGIN ATOM
M  V30 1 N 72.995000 54.169500 42.176300 0
M  V30 2 S 74.072300 55.496800 42.409500 0
M  V30 3 O 73.272300 56.615200 42.930800 0
M  V30 4 O 75.270500 55.086900 43.148000 0
M  V30 5 C 74.525300 55.793800 40.660700 0
M  V30 6 C 74.811300 57.257200 40.480500 0
M  V30 7 C 73.362100 57.436000 40.002200 0
M  V30 8 F 73.322900 58.187100 38.926500 0
M  V30 9 F 72.473500 57.862100 40.895400 0
M  V30 10 C 73.319400 55.959100 39.710600 0
M  V30 11 H 75.305700 55.112200 40.324800 0
M  V30 12 H 75.054800 57.765600 41.402300 0
M  V30 13 H 75.577700 57.427200 39.724400 0
M  V30 14 H 73.581900 55.717500 38.676900 0
M  V30 15 H 72.389700 55.475400 40.002700 0
M  V30 16 H 72.007700 54.406900 42.118800 0
M  V30 17 R 73.391300 52.843700 41.789300 0
M  V30 END ATOM
M  V30 BEGIN BOND
M  V30 1 1 2 1
M  V30 2 2 3 2
M  V30 3 2 4 2
M  V30 4 1 5 2
M  V30 5 1 6 5
M  V30 6 1 7 6
M  V30 7 1 8 7
M  V30 8 1 9 7
M  V30 9 1 10 5
M  V30 10 1 10 7
M  V30 11 1 11 5
M  V30 12 1 12 6
M  V30 13 1 13 6
M  V30 14 1 14 10
M  V30 15 1 15 10
M  V30 16 1 16 1
M  V30 17 1 17 1
M  V30 END BOND
M  V30 END CTAB
M  END
$$$$
R-group 394 (7181-1)
     RDKit          3D

  0  0  0  0  0  0  0  0  0  0999 V3000
M  V30 BEGIN CTAB
M  V30 COUNTS 13 13 0 0 1
M  V30 BEGIN ATOM
M  V30 1 O 73.832700 54.574100 42.525500 0
M  V30 2 C 75.012300 55.229800 42.111100 0
M  V30 3 C 74.461000 56.118600 41.104200 0
M  V30 4 C 74.183200 55.970100 39.776000 0
M  V30 5 C 73.270200 56.972100 39.480100 0
M  V30 6 C 73.067300 57.658200 40.633100 0
M  V30 7 O 73.812500 57.177500 41.637700 0
M  V30 8 H 75.446100 55.790600 42.939400 0
M  V30 9 H 75.771500 54.571800 41.709300 0
M  V30 10 H 74.471900 55.205500 39.084100 0
M  V30 11 H 72.805000 57.179800 38.531300 0
M  V30 12 H 72.458400 58.509800 40.898200 0
M  V30 13 R 73.658100 53.212700 42.199400 0
M  V30 END ATOM
M  V30 BEGIN BOND
M  V30 1 1 2 1
M  V30 2 1 3 2
M  V30 3 2 4 3
M  V30 4 1 5 4
M  V30 5 2 6 5
M  V30 6 1 7 3
M  V30 7 1 7 6
M  V30 8 1 8 2
M  V30 9 1 9 2
M  V30 10 1 10 4
M  V30 11 1 11 5
M  V30 12 1 12 6
M  V30 13 1 13 1
M  V30 END BOND
M  V30 END CTAB
M  END
$$$$
R-group 395 (43523-1)
     RDKit          3D

  0  0  0  0  0  0  0  0  0  0999 V3000
M  V30 BEGIN CTAB
M  V30 COUNTS 13 12 0 0 1
M  V30 BEGIN ATOM
M  V30 1 O 74.670000 55.016900 41.927500 0
M  V30 2 C 73.903300 56.232200 42.073600 0
M  V30 3 C 73.003800 56.162200 43.323200 0
M  V30 4 C 74.859600 57.380400 42.250100 0
M  V30 5 C 73.342900 56.568300 40.735500 0
M  V30 6 N 72.886200 56.847700 39.709200 0
M  V30 7 H 72.555300 57.110500 43.600500 0
M  V30 8 H 72.170700 55.456800 43.272000 0
M  V30 9 H 73.668200 55.860200 44.124700 0
M  V30 10 H 74.216100 58.268000 42.304700 0
M  V30 11 H 75.459600 57.314900 43.153100 0
M  V30 12 H 75.543300 57.540300 41.411500 0
M  V30 13 R 74.003300 53.788700 41.745800 0
M  V30 END ATOM
M  V30 BEGIN BOND
M  V30 1 1 2 1
M  V30 2 1 3 2
M  V30 3 1 4 2
M  V30 4 1 5 2
M  V30 5 3 6 5
M  V30 6 1 7 3
M  V30 7 1 8 3
M  V30 8 1 9 3
M  V30 9 1 10 4
M  V30 10 1 11 4
M  V30 11 1 12 4
M  V30 12 1 13 1
M  V30 END BOND
M  V30 END CTAB
M  END
$$$$
R-group 396 (7202-1)
     RDKit          3D

  0  0  0  0  0  0  0  0  0  0999 V3000
M  V30 BEGIN CTAB
M  V30 COUNTS 20 20 0 0 1
M  V30 BEGIN ATOM
M  V30 1 O 73.788400 54.705900 41.727300 0
M  V30 2 C 75.160800 55.041700 41.536900 0
M  V30 3 C 75.266200 56.495600 41.114300 0 CFG=1
M  V30 4 C 74.757300 56.764700 39.698600 0
M  V30 5 C 73.334900 57.254300 39.814700 0
M  V30 6 C 73.273200 57.658600 41.270300 0
M  V30 7 O 72.473100 58.482000 41.704100 0
M  V30 8 N 74.358900 57.257900 41.920400 0
M  V30 9 C 74.608400 57.444100 43.324600 0
M  V30 10 H 75.672300 54.903200 42.486500 0
M  V30 11 H 75.673300 54.424900 40.811500 0
M  V30 12 H 76.293900 56.852000 41.226800 0
M  V30 13 H 75.277500 57.633300 39.324700 0
M  V30 14 H 74.869900 55.948000 38.996600 0
M  V30 15 H 73.284000 58.129100 39.169400 0
M  V30 16 H 72.588400 56.500400 39.560100 0
M  V30 17 H 74.833700 58.442300 43.724600 0
M  V30 18 H 73.661100 57.103200 43.724700 0
M  V30 19 H 75.402200 56.781700 43.681000 0
M  V30 20 R 73.457600 53.335600 41.844400 0
M  V30 END ATOM
M  V30 BEGIN BOND
M  V30 1 1 2 1
M  V30 2 1 3 2
M  V30 3 1 4 3
M  V30 4 1 5 4
M  V30 5 1 6 5
M  V30 6 2 7 6
M  V30 7 1 8 3
M  V30 8 1 8 6
M  V30 9 1 9 8
M  V30 10 1 10 2
M  V30 11 1 11 2
M  V30 12 1 3 12 CFG=3
M  V30 13 1 13 4
M  V30 14 1 14 4
M  V30 15 1 15 5
M  V30 16 1 16 5
M  V30 17 1 17 9
M  V30 18 1 18 9
M  V30 19 1 19 9
M  V30 20 1 20 1
M  V30 END BOND
M  V30 END CTAB
M  END
$$$$
R-group 397 (2485-2)
     RDKit          3D

  0  0  0  0  0  0  0  0  0  0999 V3000
M  V30 BEGIN CTAB
M  V30 COUNTS 16 15 0 0 1
M  V30 BEGIN ATOM
M  V30 1 C 74.735900 55.026600 42.697100 0 CFG=2
M  V30 2 C 75.625600 55.270100 43.960800 0
M  V30 3 N 73.641800 55.916100 42.923800 0
M  V30 4 C 73.629100 57.178400 42.265100 0
M  V30 5 C 73.554200 57.052600 40.737700 0
M  V30 6 F 72.873300 58.156100 40.524500 0
M  V30 7 F 74.767100 57.022300 40.199600 0
M  V30 8 F 72.872200 56.097300 40.125300 0
M  V30 9 H 75.311500 55.297300 41.814400 0
M  V30 10 H 76.461700 54.587200 44.125300 0
M  V30 11 H 76.070400 56.265200 43.917900 0
M  V30 12 H 75.036700 55.233400 44.877900 0
M  V30 13 H 73.272100 55.869900 43.869700 0
M  V30 14 H 72.733100 57.675700 42.640200 0
M  V30 15 H 74.468400 57.793100 42.581300 0
M  V30 16 R 74.010500 53.648500 42.468800 0
M  V30 END ATOM
M  V30 BEGIN BOND
M  V30 1 1 2 1
M  V30 2 1 3 1
M  V30 3 1 4 3
M  V30 4 1 5 4
M  V30 5 1 6 5
M  V30 6 1 7 5
M  V30 7 1 8 5
M  V30 8 1 1 9 CFG=3
M  V30 9 1 10 2
M  V30 10 1 11 2
M  V30 11 1 12 2
M  V30 12 1 13 3
M  V30 13 1 14 4
M  V30 14 1 15 4
M  V30 15 1 16 1
M  V30 END BOND
M  V30 END CTAB
M  END
$$$$
R-group 398 (3032-1)
     RDKit          3D

  0  0  0  0  0  0  0  0  0  0999 V3000
M  V30 BEGIN CTAB
M  V30 COUNTS 24 24 0 0 1
M  V30 BEGIN ATOM
M  V30 1 C 73.727000 54.818200 41.694600 0
M  V30 2 C 73.084900 55.571800 42.845800 0
M  V30 3 C 73.030200 57.086700 42.731200 0
M  V30 4 C 72.517500 57.624200 41.355900 0
M  V30 5 C 73.642800 58.057900 40.540100 0
M  V30 6 C 74.661200 57.064300 39.974100 0
M  V30 7 C 75.640100 56.499300 41.004000 0
M  V30 8 C 75.227100 55.149200 41.580900 0
M  V30 9 H 73.210500 55.111100 40.787700 0
M  V30 10 H 72.072500 55.186600 42.930600 0
M  V30 11 H 73.672900 55.344800 43.724800 0
M  V30 12 H 72.472100 57.499800 43.563700 0
M  V30 13 H 74.020700 57.459700 42.980800 0
M  V30 14 H 72.072400 56.932200 40.641200 0
M  V30 15 H 71.868700 58.485000 41.520000 0
M  V30 16 H 73.271800 58.707000 39.741500 0
M  V30 17 H 74.072100 58.642900 41.326200 0
M  V30 18 H 74.214200 56.311800 39.322200 0
M  V30 19 H 75.272300 57.659500 39.324600 0
M  V30 20 H 76.609600 56.367800 40.523900 0
M  V30 21 H 75.831000 57.223800 41.795300 0
M  V30 22 H 75.672500 55.029700 42.564400 0
M  V30 23 H 75.672700 54.410600 40.934900 0
M  V30 24 R 73.459800 53.296100 41.828200 0
M  V30 END ATOM
M  V30 BEGIN BOND
M  V30 1 1 2 1
M  V30 2 1 3 2
M  V30 3 1 4 3
M  V30 4 1 5 4
M  V30 5 1 6 5
M  V30 6 1 7 6
M  V30 7 1 8 1
M  V30 8 1 8 7
M  V30 9 1 9 1
M  V30 10 1 10 2
M  V30 11 1 11 2
M  V30 12 1 12 3
M  V30 13 1 13 3
M  V30 14 1 14 4
M  V30 15 1 15 4
M  V30 16 1 16 5
M  V30 17 1 17 5
M  V30 18 1 18 6
M  V30 19 1 19 6
M  V30 20 1 20 7
M  V30 21 1 21 7
M  V30 22 1 22 8
M  V30 23 1 23 8
M  V30 24 1 24 1
M  V30 END BOND
M  V30 END CTAB
M  END
$$$$
R-group 399 (17372-1)
     RDKit          3D

  0  0  0  0  0  0  0  0  0  0999 V3000
M  V30 BEGIN CTAB
M  V30 COUNTS 16 15 0 0 1
M  V30 BEGIN ATOM
M  V30 1 C 73.856900 55.340600 42.664300 0
M  V30 2 O 74.896300 56.261400 42.327700 0
M  V30 3 C 76.139500 56.281200 43.042200 0
M  V30 4 C 76.326300 55.354300 44.273300 0
M  V30 5 C 77.748700 55.090600 44.806000 0
M  V30 6 O 77.671900 54.288100 45.972300 0
M  V30 7 H 72.941100 55.874900 42.414200 0
M  V30 8 H 73.803200 55.257500 43.722800 0
M  V30 9 H 76.871400 56.058600 42.269900 0
M  V30 10 H 76.346100 57.314900 43.333700 0
M  V30 11 H 75.659000 55.630100 45.088000 0
M  V30 12 H 76.047700 54.385100 43.946800 0
M  V30 13 H 78.377900 54.502900 44.125600 0
M  V30 14 H 78.264900 56.039200 44.925600 0
M  V30 15 H 77.214900 54.773500 46.639500 0
M  V30 16 R 73.795700 53.973700 41.906400 0
M  V30 END ATOM
M  V30 BEGIN BOND
M  V30 1 1 2 1
M  V30 2 1 3 2
M  V30 3 1 4 3
M  V30 4 1 5 4
M  V30 5 1 6 5
M  V30 6 1 7 1
M  V30 7 1 8 1
M  V30 8 1 9 3
M  V30 9 1 10 3
M  V30 10 1 11 4
M  V30 11 1 12 4
M  V30 12 1 13 5
M  V30 13 1 14 5
M  V30 14 1 15 6
M  V30 15 1 16 1
M  V30 END BOND
M  V30 END CTAB
M  END
$$$$
R-group 400 (39155-1)
     RDKit          3D

  0  0  0  0  0  0  0  0  0  0999 V3000
M  V30 BEGIN CTAB
M  V30 COUNTS 17 16 0 0 1
M  V30 BEGIN ATOM
M  V30 1 O 73.497100 54.970900 41.754900 0
M  V30 2 C 73.241100 55.741800 42.924600 0
M  V30 3 C 73.838400 57.166200 42.803300 0 CFG=2
M  V30 4 O 73.271900 57.895800 41.749300 0
M  V30 5 C 75.352100 57.257900 42.590700 0
M  V30 6 C 76.072200 55.951800 42.745500 0
M  V30 7 O 76.072100 55.657900 44.124700 0
M  V30 8 H 72.205500 55.734700 43.269900 0
M  V30 9 H 73.764200 55.258100 43.724700 0
M  V30 10 H 73.590900 57.695400 43.724600 0
M  V30 11 H 75.591600 57.653700 41.600800 0
M  V30 12 H 75.781700 57.946300 43.324800 0
M  V30 13 H 75.675500 55.134900 42.162100 0
M  V30 14 H 77.048700 56.058000 42.307000 0
M  V30 15 H 73.669700 58.751600 41.726200 0
M  V30 16 H 76.589600 56.319800 44.554800 0
M  V30 17 R 73.300100 53.565900 41.843500 0
M  V30 END ATOM
M  V30 BEGIN BOND
M  V30 1 1 2 1
M  V30 2 1 3 2
M  V30 3 1 4 3
M  V30 4 1 5 3
M  V30 5 1 6 5
M  V30 6 1 7 6
M  V30 7 1 8 2
M  V30 8 1 9 2
M  V30 9 1 3 10 CFG=1
M  V30 10 1 11 5
M  V30 11 1 12 5
M  V30 12 1 13 6
M  V30 13 1 14 6
M  V30 14 1 15 4
M  V30 15 1 16 7
M  V30 16 1 17 1
M  V30 END BOND
M  V30 END CTAB
M  END
$$$$
R-group 401 (42449-1)
     RDKit          3D

  0  0  0  0  0  0  0  0  0  0999 V3000
M  V30 BEGIN CTAB
M  V30 COUNTS 16 15 0 0 1
M  V30 BEGIN ATOM
M  V30 1 N 73.596400 54.671600 41.757900 0
M  V30 2 C 72.941600 55.252200 42.917000 0
M  V30 3 C 74.945600 55.207900 41.626600 0
M  V30 4 S 74.760700 56.857000 40.924900 0
M  V30 5 C 76.484300 57.450700 40.794100 0
M  V30 6 O 74.189600 56.719900 39.579500 0
M  V30 7 O 74.061500 57.658000 41.927400 0
M  V30 8 H 72.618600 56.284200 42.853600 0
M  V30 9 H 72.027500 54.710600 43.170500 0
M  V30 10 H 73.672200 55.258100 43.723300 0
M  V30 11 H 75.469800 55.277900 42.577800 0
M  V30 12 H 75.581000 54.644400 40.954800 0
M  V30 13 H 76.481600 58.457300 40.389100 0
M  V30 14 H 76.941800 57.464300 41.781900 0
M  V30 15 H 77.045100 56.806600 40.125900 0
M  V30 16 R 73.494300 53.218900 41.775400 0
M  V30 END ATOM
M  V30 BEGIN BOND
M  V30 1 1 2 1
M  V30 2 1 3 1
M  V30 3 1 4 3
M  V30 4 1 5 4
M  V30 5 2 6 4
M  V30 6 2 7 4
M  V30 7 1 8 2
M  V30 8 1 9 2
M  V30 9 1 10 2
M  V30 10 1 11 3
M  V30 11 1 12 3
M  V30 12 1 13 5
M  V30 13 1 14 5
M  V30 14 1 15 5
M  V30 15 1 16 1
M  V30 END BOND
M  V30 END CTAB
M  END
$$$$
R-group 402 (32187-1)
     RDKit          3D

  0  0  0  0  0  0  0  0  0  0999 V3000
M  V30 BEGIN CTAB
M  V30 COUNTS 16 16 0 0 1
M  V30 BEGIN ATOM
M  V30 1 C 74.262000 54.699900 41.935600 0
M  V30 2 N 73.672200 55.701000 42.517700 0
M  V30 3 C 74.208500 56.800700 41.883500 0
M  V30 4 C 73.445100 58.042000 41.940300 0 CFG=1
M  V30 5 C 72.508200 58.170400 40.758000 0
M  V30 6 O 72.872300 58.056700 43.197900 0
M  V30 7 C 75.283700 56.461400 41.108700 0
M  V30 8 N 75.269600 55.091500 41.150000 0
M  V30 9 H 74.072500 58.855300 41.929800 0
M  V30 10 H 73.105800 58.450800 39.891200 0
M  V30 11 H 72.072000 57.206500 40.519100 0
M  V30 12 H 71.736900 58.924200 40.923600 0
M  V30 13 H 75.934500 57.033900 40.462700 0
M  V30 14 H 72.742800 57.141900 43.416700 0
M  V30 15 H 75.853900 54.475700 40.601800 0
M  V30 16 R 73.742500 53.323200 42.018400 0
M  V30 END ATOM
M  V30 BEGIN BOND
M  V30 1 2 2 1
M  V30 2 1 3 2
M  V30 3 1 4 3
M  V30 4 1 5 4
M  V30 5 1 6 4
M  V30 6 2 7 3
M  V30 7 1 8 1
M  V30 8 1 8 7
M  V30 9 1 4 9 CFG=1
M  V30 10 1 10 5
M  V30 11 1 11 5
M  V30 12 1 12 5
M  V30 13 1 13 7
M  V30 14 1 14 6
M  V30 15 1 15 8
M  V30 16 1 16 1
M  V30 END BOND
M  V30 END CTAB
M  END
$$$$
R-group 403 (2450-1)
     RDKit          3D

  0  0  0  0  0  0  0  0  0  0999 V3000
M  V30 BEGIN CTAB
M  V30 COUNTS 14 14 0 0 1
M  V30 BEGIN ATOM
M  V30 1 C 74.941800 54.844700 42.361600 0
M  V30 2 C 74.340300 56.053800 41.742100 0
M  V30 3 C 74.338400 56.197200 40.346400 0
M  V30 4 C 73.518200 57.172800 39.802600 0
M  V30 5 N 72.872200 58.058000 40.569900 0
M  V30 6 C 73.047400 58.058000 41.899300 0
M  V30 7 C 73.710600 57.015900 42.543300 0
M  V30 8 H 75.201200 55.072200 43.396900 0
M  V30 9 H 75.880400 54.678300 41.840300 0
M  V30 10 H 74.858800 55.539600 39.682000 0
M  V30 11 H 73.383500 57.255700 38.737900 0
M  V30 12 H 72.520500 58.814000 42.462600 0
M  V30 13 H 73.683400 56.943900 43.619100 0
M  V30 14 R 74.039200 53.588800 42.271900 0
M  V30 END ATOM
M  V30 BEGIN BOND
M  V30 1 1 2 1
M  V30 2 2 3 2
M  V30 3 1 4 3
M  V30 4 2 5 4
M  V30 5 1 6 5
M  V30 6 1 7 2
M  V30 7 2 7 6
M  V30 8 1 8 1
M  V30 9 1 9 1
M  V30 10 1 10 3
M  V30 11 1 11 4
M  V30 12 1 12 6
M  V30 13 1 13 7
M  V30 14 1 14 1
M  V30 END BOND
M  V30 END CTAB
M  END
$$$$
R-group 404 (12880-1)
     RDKit          3D

  0  0  0  0  0  0  0  0  0  0999 V3000
M  V30 BEGIN CTAB
M  V30 COUNTS 15 15 0 0 1
M  V30 BEGIN ATOM
M  V30 1 S 74.766500 55.256600 42.316000 0
M  V30 2 O 75.272300 55.258000 43.696600 0
M  V30 3 O 75.669600 55.631800 41.218200 0
M  V30 4 C 73.392700 56.432900 42.181000 0
M  V30 5 C 72.872500 56.389100 40.757600 0
M  V30 6 C 72.236100 57.556100 40.124800 0
M  V30 7 C 73.560400 57.065100 39.594900 0
M  V30 8 H 72.638900 56.171000 42.925000 0
M  V30 9 H 73.778700 57.424900 42.415600 0
M  V30 10 H 72.295600 55.511400 40.524600 0
M  V30 11 H 71.328800 57.256100 39.595400 0
M  V30 12 H 72.209300 58.494600 40.675500 0
M  V30 13 H 74.446000 57.657600 39.799700 0
M  V30 14 H 73.563100 56.546000 38.638400 0
M  V30 15 R 73.941000 53.579500 42.033100 0
M  V30 END ATOM
M  V30 BEGIN BOND
M  V30 1 2 2 1
M  V30 2 2 3 1
M  V30 3 1 4 1
M  V30 4 1 5 4
M  V30 5 1 6 5
M  V30 6 1 7 5
M  V30 7 1 7 6
M  V30 8 1 8 4
M  V30 9 1 9 4
M  V30 10 1 10 5
M  V30 11 1 11 6
M  V30 12 1 12 6
M  V30 13 1 13 7
M  V30 14 1 14 7
M  V30 15 1 15 1
M  V30 END BOND
M  V30 END CTAB
M  END
$$$$
R-group 405 (16343-2)
     RDKit          3D

  0  0  0  0  0  0  0  0  0  0999 V3000
M  V30 BEGIN CTAB
M  V30 COUNTS 13 12 0 0 1
M  V30 BEGIN ATOM
M  V30 1 N 74.472300 54.940900 42.397200 0
M  V30 2 C 73.516100 56.008400 42.177700 0 CFG=1
M  V30 3 C 73.751800 57.131900 43.179200 0
M  V30 4 C 73.672200 56.559900 40.722400 0
M  V30 5 F 73.308100 55.719900 39.761800 0
M  V30 6 F 72.941800 57.658000 40.549800 0
M  V30 7 F 74.956500 56.857900 40.524900 0
M  V30 8 H 75.207900 55.012300 41.707300 0
M  V30 9 H 72.564500 55.598200 42.524700 0
M  V30 10 H 73.262100 58.058000 42.881800 0
M  V30 11 H 73.272000 56.838100 44.106500 0
M  V30 12 H 74.811300 57.345300 43.324800 0
M  V30 13 R 73.885100 53.600400 42.380900 0
M  V30 END ATOM
M  V30 BEGIN BOND
M  V30 1 1 2 1
M  V30 2 1 3 2
M  V30 3 1 4 2
M  V30 4 1 5 4
M  V30 5 1 6 4
M  V30 6 1 7 4
M  V30 7 1 8 1
M  V30 8 1 2 9 CFG=3
M  V30 9 1 10 3
M  V30 10 1 11 3
M  V30 11 1 12 3
M  V30 12 1 13 1
M  V30 END BOND
M  V30 END CTAB
M  END
$$$$
R-group 406 (14195-1)
     RDKit          3D

  0  0  0  0  0  0  0  0  0  0999 V3000
M  V30 BEGIN CTAB
M  V30 COUNTS 13 13 0 0 1
M  V30 BEGIN ATOM
M  V30 1 C 74.233300 55.124600 41.771000 0
M  V30 2 C 75.305900 55.465200 41.069300 0
M  V30 3 N 75.701100 56.718100 41.395200 0
M  V30 4 C 76.339000 57.657700 40.514400 0
M  V30 5 N 74.732700 57.252000 42.187800 0
M  V30 6 C 73.867800 56.307300 42.524000 0
M  V30 7 O 72.976700 56.471600 43.324700 0
M  V30 8 H 75.963400 54.869700 40.457000 0
M  V30 9 H 77.307300 57.297300 40.169900 0
M  V30 10 H 75.671600 57.739500 39.667300 0
M  V30 11 H 76.472900 58.632100 40.970200 0
M  V30 12 H 74.865800 58.157900 42.609000 0
M  V30 13 R 73.642100 53.732700 41.913300 0
M  V30 END ATOM
M  V30 BEGIN BOND
M  V30 1 2 2 1
M  V30 2 1 3 2
M  V30 3 1 4 3
M  V30 4 1 5 3
M  V30 5 1 6 1
M  V30 6 1 6 5
M  V30 7 2 7 6
M  V30 8 1 8 2
M  V30 9 1 9 4
M  V30 10 1 10 4
M  V30 11 1 11 4
M  V30 12 1 12 5
M  V30 13 1 13 1
M  V30 END BOND
M  V30 END CTAB
M  END
$$$$
R-group 407 (2463-1)
     RDKit          3D

  0  0  0  0  0  0  0  0  0  0999 V3000
M  V30 BEGIN CTAB
M  V30 COUNTS 14 14 0 0 1
M  V30 BEGIN ATOM
M  V30 1 C 72.999300 54.311700 42.257100 0
M  V30 2 N 73.876300 55.402700 41.855400 0
M  V30 3 N 73.674700 56.053600 40.685900 0
M  V30 4 C 74.724000 56.857400 40.619200 0
M  V30 5 N 75.552000 56.855700 41.700100 0
M  V30 6 C 74.961100 55.930000 42.441400 0
M  V30 7 C 75.458700 55.513900 43.788200 0
M  V30 8 H 71.970400 54.458100 41.931000 0
M  V30 9 H 72.985600 54.247300 43.323800 0
M  V30 10 H 74.894000 57.468200 39.745800 0
M  V30 11 H 76.072600 56.307100 44.210700 0
M  V30 12 H 74.644300 55.257900 44.469500 0
M  V30 13 H 76.070900 54.629200 43.724600 0
M  V30 14 R 73.410300 52.962100 41.701500 0
M  V30 END ATOM
M  V30 BEGIN BOND
M  V30 1 1 2 1
M  V30 2 1 3 2
M  V30 3 2 4 3
M  V30 4 1 5 4
M  V30 5 1 6 2
M  V30 6 2 6 5
M  V30 7 1 7 6
M  V30 8 1 8 1
M  V30 9 1 9 1
M  V30 10 1 10 4
M  V30 11 1 11 7
M  V30 12 1 12 7
M  V30 13 1 13 7
M  V30 14 1 14 1
M  V30 END BOND
M  V30 END CTAB
M  END
$$$$
R-group 408 (7616-1)
     RDKit          3D

  0  0  0  0  0  0  0  0  0  0999 V3000
M  V30 BEGIN CTAB
M  V30 COUNTS 16 15 0 0 1
M  V30 BEGIN ATOM
M  V30 1 C 76.800300 57.414200 40.662600 0
M  V30 2 O 76.094700 57.022300 41.826400 0
M  V30 3 C 75.090200 56.089700 41.516900 0
M  V30 4 C 74.286900 55.737400 42.773000 0 CFG=1
M  V30 5 C 73.515600 56.961100 43.293600 0
M  V30 6 O 73.272200 54.773300 42.523100 0
M  V30 7 H 77.667500 58.021900 40.903800 0
M  V30 8 H 77.156900 56.530900 40.149200 0
M  V30 9 H 76.169200 57.975600 39.978600 0
M  V30 10 H 75.581000 55.201900 41.120100 0
M  V30 11 H 74.430000 56.500900 40.751100 0
M  V30 12 H 74.959300 55.369900 43.546900 0
M  V30 13 H 74.193900 57.758000 43.592100 0
M  V30 14 H 72.873100 57.370500 42.513800 0
M  V30 15 H 72.872400 56.700300 44.138200 0
M  V30 16 R 73.514000 53.532000 41.864200 0
M  V30 END ATOM
M  V30 BEGIN BOND
M  V30 1 1 2 1
M  V30 2 1 3 2
M  V30 3 1 4 3
M  V30 4 1 5 4
M  V30 5 1 6 4
M  V30 6 1 7 1
M  V30 7 1 8 1
M  V30 8 1 9 1
M  V30 9 1 10 3
M  V30 10 1 11 3
M  V30 11 1 4 12 CFG=1
M  V30 12 1 13 5
M  V30 13 1 14 5
M  V30 14 1 15 5
M  V30 15 1 16 6
M  V30 END BOND
M  V30 END CTAB
M  END
$$$$
R-group 409 (26958-2)
     RDKit          3D

  0  0  0  0  0  0  0  0  0  0999 V3000
M  V30 BEGIN CTAB
M  V30 COUNTS 15 15 0 0 1
M  V30 BEGIN ATOM
M  V30 1 C 74.115400 55.182700 42.171100 0 CFG=2
M  V30 2 C 73.561200 56.001800 43.325000 0
M  V30 3 C 75.609100 55.476800 42.076000 0
M  V30 4 N 75.697000 56.459200 41.023300 0
M  V30 5 C 74.563600 56.517900 40.348700 0
M  V30 6 O 74.337000 57.115200 39.324700 0
M  V30 7 N 73.672000 55.819500 40.979500 0
M  V30 8 H 74.079300 55.653300 44.208300 0
M  V30 9 H 73.778900 57.064800 43.225800 0
M  V30 10 H 72.480500 55.901600 43.420000 0
M  V30 11 H 76.070900 55.802800 43.010100 0
M  V30 12 H 76.072200 54.581000 41.724000 0
M  V30 13 H 76.556800 56.903900 40.738300 0
M  V30 14 H 72.730000 55.725200 40.637000 0
M  V30 15 R 73.693400 53.663900 42.157500 0
M  V30 END ATOM
M  V30 BEGIN BOND
M  V30 1 1 2 1
M  V30 2 1 3 1
M  V30 3 1 4 3
M  V30 4 1 5 4
M  V30 5 2 6 5
M  V30 6 1 7 1
M  V30 7 1 7 5
M  V30 8 1 8 2
M  V30 9 1 9 2
M  V30 10 1 10 2
M  V30 11 1 11 3
M  V30 12 1 12 3
M  V30 13 1 13 4
M  V30 14 1 14 7
M  V30 15 1 1 15 CFG=1
M  V30 END BOND
M  V30 END CTAB
M  END
$$$$
R-group 410 (15084-1)
     RDKit          3D

  0  0  0  0  0  0  0  0  0  0999 V3000
M  V30 BEGIN CTAB
M  V30 COUNTS 16 16 0 0 1
M  V30 BEGIN ATOM
M  V30 1 C 73.683300 54.393700 41.732400 0
M  V30 2 N 74.281900 55.085900 42.706400 0
M  V30 3 N 74.194400 56.416600 42.522500 0
M  V30 4 C 73.678600 56.691000 41.326400 0
M  V30 5 C 73.612700 58.056900 40.873900 0
M  V30 6 C 72.388800 58.767600 41.383500 0
M  V30 7 C 73.690200 58.131100 39.324500 0
M  V30 8 S 73.272200 55.330400 40.317900 0
M  V30 9 H 74.463900 58.454300 41.397600 0
M  V30 10 H 72.075500 58.458500 42.381800 0
M  V30 11 H 72.470200 59.849600 41.367800 0
M  V30 12 H 71.672000 58.463600 40.657500 0
M  V30 13 H 74.594900 57.676000 38.928600 0
M  V30 14 H 72.871900 57.612800 38.841200 0
M  V30 15 H 73.671600 59.157000 38.940600 0
M  V30 16 R 73.444300 52.944500 41.837100 0
M  V30 END ATOM
M  V30 BEGIN BOND
M  V30 1 2 2 1
M  V30 2 1 3 2
M  V30 3 2 4 3
M  V30 4 1 5 4
M  V30 5 1 6 5
M  V30 6 1 7 5
M  V30 7 1 8 1
M  V30 8 1 8 4
M  V30 9 1 9 5
M  V30 10 1 10 6
M  V30 11 1 11 6
M  V30 12 1 12 6
M  V30 13 1 13 7
M  V30 14 1 14 7
M  V30 15 1 15 7
M  V30 16 1 16 1
M  V30 END BOND
M  V30 END CTAB
M  END
$$$$
R-group 411 (417-1)
     RDKit          3D

  0  0  0  0  0  0  0  0  0  0999 V3000
M  V30 BEGIN CTAB
M  V30 COUNTS 18 17 0 0 1
M  V30 BEGIN ATOM
M  V30 1 C 73.022300 56.325400 38.894600 0
M  V30 2 C 73.670600 56.887300 40.122000 0
M  V30 3 O 73.037700 57.657600 40.834500 0
M  V30 4 N 74.909400 56.492200 40.406100 0
M  V30 5 C 75.545900 56.743100 41.685300 0
M  V30 6 C 75.409700 55.479800 42.524400 0
M  V30 7 C 73.956500 54.988400 42.725100 0
M  V30 8 H 73.683500 56.457000 38.042200 0
M  V30 9 H 72.806800 55.265400 38.980300 0
M  V30 10 H 72.091600 56.855000 38.692400 0
M  V30 11 H 75.105500 57.592100 42.210700 0
M  V30 12 H 76.596800 56.984800 41.518800 0
M  V30 13 H 75.883700 55.636800 43.494500 0
M  V30 14 H 75.991600 54.716900 42.022100 0
M  V30 15 H 73.209200 55.560800 42.201300 0
M  V30 16 H 73.694900 55.262000 43.724300 0
M  V30 17 H 75.391000 55.889100 39.757300 0
M  V30 18 R 73.676300 53.495300 42.449600 0
M  V30 END ATOM
M  V30 BEGIN BOND
M  V30 1 1 2 1
M  V30 2 2 3 2
M  V30 3 1 4 2
M  V30 4 1 5 4
M  V30 5 1 6 5
M  V30 6 1 7 6
M  V30 7 1 8 1
M  V30 8 1 9 1
M  V30 9 1 10 1
M  V30 10 1 11 5
M  V30 11 1 12 5
M  V30 12 1 13 6
M  V30 13 1 14 6
M  V30 14 1 15 7
M  V30 15 1 16 7
M  V30 16 1 17 4
M  V30 17 1 18 7
M  V30 END BOND
M  V30 END CTAB
M  END
$$$$
R-group 412 (5230-1)
     RDKit          3D

  0  0  0  0  0  0  0  0  0  0999 V3000
M  V30 BEGIN CTAB
M  V30 COUNTS 15 15 0 0 1
M  V30 BEGIN ATOM
M  V30 1 C 72.657200 58.876500 42.044400 0
M  V30 2 C 73.523600 58.043900 43.008500 0
M  V30 3 N 73.921400 56.838600 42.355100 0
M  V30 4 C 74.929600 56.622500 41.501700 0
M  V30 5 N 75.014400 55.364700 41.100400 0
M  V30 6 C 73.954200 54.742100 41.752500 0
M  V30 7 C 73.297500 55.636400 42.524500 0
M  V30 8 H 72.450800 59.902000 42.353500 0
M  V30 9 H 73.070400 58.857700 41.035200 0
M  V30 10 H 71.671700 58.458900 41.970000 0
M  V30 11 H 72.966700 57.813400 43.917800 0
M  V30 12 H 74.471700 58.458500 43.325500 0
M  V30 13 H 75.606900 57.397700 41.175300 0
M  V30 14 H 72.467400 55.514100 43.206500 0
M  V30 15 R 73.646800 53.299600 41.724600 0
M  V30 END ATOM
M  V30 BEGIN BOND
M  V30 1 1 2 1
M  V30 2 1 3 2
M  V30 3 1 4 3
M  V30 4 2 5 4
M  V30 5 1 6 5
M  V30 6 1 7 3
M  V30 7 2 7 6
M  V30 8 1 8 1
M  V30 9 1 9 1
M  V30 10 1 10 1
M  V30 11 1 11 2
M  V30 12 1 12 2
M  V30 13 1 13 4
M  V30 14 1 14 7
M  V30 15 1 15 6
M  V30 END BOND
M  V30 END CTAB
M  END
$$$$
R-group 413 (18602-1)
     RDKit          3D

  0  0  0  0  0  0  0  0  0  0999 V3000
M  V30 BEGIN CTAB
M  V30 COUNTS 20 20 0 0 1
M  V30 BEGIN ATOM
M  V30 1 C 73.041900 54.185200 42.251100 0
M  V30 2 C 74.076600 55.304400 42.014400 0
M  V30 3 C 75.044300 55.642200 43.002800 0
M  V30 4 C 75.297500 55.034900 44.363900 0
M  V30 5 C 75.978400 56.618500 42.722300 0
M  V30 6 C 76.066000 57.113200 41.429200 0
M  V30 7 N 75.184600 56.830300 40.490000 0
M  V30 8 C 74.130400 56.024800 40.796700 0
M  V30 9 C 73.060900 56.075500 39.714500 0
M  V30 10 H 72.059300 54.457700 41.895500 0
M  V30 11 H 72.917900 53.974200 43.299700 0
M  V30 12 H 75.807500 55.658000 45.096600 0
M  V30 13 H 74.429600 54.781100 44.883800 0
M  V30 14 H 75.940100 54.186900 44.215500 0
M  V30 15 H 76.626900 56.899300 43.532700 0
M  V30 16 H 76.800500 57.892600 41.237300 0
M  V30 17 H 72.925800 55.160900 39.160900 0
M  V30 18 H 72.097200 56.382500 40.117900 0
M  V30 19 H 73.346200 56.790400 38.944500 0
M  V30 20 R 73.367100 52.839200 41.593500 0
M  V30 END ATOM
M  V30 BEGIN BOND
M  V30 1 1 2 1
M  V30 2 2 3 2
M  V30 3 1 4 3
M  V30 4 1 5 3
M  V30 5 2 6 5
M  V30 6 1 7 6
M  V30 7 1 8 2
M  V30 8 2 8 7
M  V30 9 1 9 8
M  V30 10 1 10 1
M  V30 11 1 11 1
M  V30 12 1 12 4
M  V30 13 1 13 4
M  V30 14 1 14 4
M  V30 15 1 15 5
M  V30 16 1 16 6
M  V30 17 1 17 9
M  V30 18 1 18 9
M  V30 19 1 19 9
M  V30 20 1 20 1
M  V30 END BOND
M  V30 END CTAB
M  END
$$$$
R-group 414 (11300-1)
     RDKit          3D

  0  0  0  0  0  0  0  0  0  0999 V3000
M  V30 BEGIN CTAB
M  V30 COUNTS 15 14 0 0 1
M  V30 BEGIN ATOM
M  V30 1 C 74.204600 54.981500 42.014500 0
M  V30 2 C 73.651900 56.010200 41.006500 0
M  V30 3 F 74.491700 56.162200 39.982200 0
M  V30 4 F 72.472400 55.633800 40.524600 0
M  V30 5 C 73.449700 57.357300 41.694200 0
M  V30 6 C 72.664600 58.346400 40.837100 0
M  V30 7 O 72.072200 59.258000 41.724700 0
M  V30 8 H 73.959000 55.286200 43.032700 0
M  V30 9 H 75.294100 55.037600 41.970700 0
M  V30 10 H 72.886500 57.182500 42.613600 0
M  V30 11 H 74.406200 57.781500 41.999800 0
M  V30 12 H 73.272200 58.850000 40.090700 0
M  V30 13 H 71.897300 57.842700 40.257900 0
M  V30 14 H 72.758100 59.770800 42.124900 0
M  V30 15 R 73.741900 53.511100 41.881300 0
M  V30 END ATOM
M  V30 BEGIN BOND
M  V30 1 1 2 1
M  V30 2 1 3 2
M  V30 3 1 4 2
M  V30 4 1 5 2
M  V30 5 1 6 5
M  V30 6 1 7 6
M  V30 7 1 8 1
M  V30 8 1 9 1
M  V30 9 1 10 5
M  V30 10 1 11 5
M  V30 11 1 12 6
M  V30 12 1 13 6
M  V30 13 1 14 7
M  V30 14 1 15 1
M  V30 END BOND
M  V30 END CTAB
M  END
$$$$
R-group 415 (15928-4)
     RDKit          3D

  0  0  0  0  0  0  0  0  0  0999 V3000
M  V30 BEGIN CTAB
M  V30 COUNTS 19 20 0 0 1
M  V30 BEGIN ATOM
M  V30 1 O 73.016700 54.384700 42.471300 0
M  V30 2 C 73.657100 55.602100 42.124000 0 CFG=1
M  V30 3 C 73.272100 56.748900 43.036200 0
M  V30 4 O 74.328700 57.654600 42.924600 0
M  V30 5 C 75.549800 56.955400 42.786800 0 CFG=2
M  V30 6 C 76.508200 57.454000 41.715600 0
M  V30 7 C 76.292400 56.565200 40.524800 0
M  V30 8 O 75.672200 55.395400 40.983400 0
M  V30 9 C 75.159300 55.582300 42.280800 0 CFG=2
M  V30 10 H 73.375100 55.908000 41.114900 0
M  V30 11 H 72.472300 57.336600 42.642700 0
M  V30 12 H 73.088600 56.456700 44.070800 0
M  V30 13 H 76.035600 56.893700 43.761300 0
M  V30 14 H 76.471600 58.460300 41.324800 0
M  V30 15 H 77.501300 57.316700 42.117400 0
M  V30 16 H 75.669100 57.036200 39.764600 0
M  V30 17 H 77.263000 56.322200 40.124700 0
M  V30 18 H 75.541100 54.853700 42.986900 0
M  V30 19 R 73.386400 53.184000 41.817000 0
M  V30 END ATOM
M  V30 BEGIN BOND
M  V30 1 1 2 1
M  V30 2 1 3 2
M  V30 3 1 4 3
M  V30 4 1 5 4
M  V30 5 1 6 5
M  V30 6 1 7 6
M  V30 7 1 8 7
M  V30 8 1 9 2
M  V30 9 1 9 5
M  V30 10 1 9 8
M  V30 11 1 2 10 CFG=3
M  V30 12 1 11 3
M  V30 13 1 12 3
M  V30 14 1 5 13 CFG=1
M  V30 15 1 14 6
M  V30 16 1 15 6
M  V30 17 1 16 7
M  V30 18 1 17 7
M  V30 19 1 9 18 CFG=1
M  V30 20 1 19 1
M  V30 END BOND
M  V30 END CTAB
M  END
$$$$
R-group 416 (12897-1)
     RDKit          3D

  0  0  0  0  0  0  0  0  0  0999 V3000
M  V30 BEGIN CTAB
M  V30 COUNTS 17 16 0 0 1
M  V30 BEGIN ATOM
M  V30 1 S 74.328900 55.354300 42.493200 0
M  V30 2 O 75.506700 55.356200 43.360100 0
M  V30 3 O 73.272200 56.261300 42.920800 0
M  V30 4 C 74.804800 55.776400 40.751900 0
M  V30 5 C 74.918400 57.257500 40.452100 0
M  V30 6 C 76.242300 57.784300 41.079100 0
M  V30 7 C 73.584100 58.030700 40.784100 0
M  V30 8 H 74.031700 55.426900 40.080000 0
M  V30 9 H 75.741300 55.267800 40.527400 0
M  V30 10 H 75.027900 57.339200 39.370300 0
M  V30 11 H 76.251400 57.643400 42.160200 0
M  V30 12 H 76.472300 58.839600 40.896300 0
M  V30 13 H 77.100300 57.250700 40.679800 0
M  V30 14 H 73.616800 58.455400 41.785200 0
M  V30 15 H 73.274300 58.846800 40.108200 0
M  V30 16 H 72.736700 57.349300 40.744200 0
M  V30 17 R 73.675700 53.597100 42.338600 0
M  V30 END ATOM
M  V30 BEGIN BOND
M  V30 1 2 2 1
M  V30 2 2 3 1
M  V30 3 1 4 1
M  V30 4 1 5 4
M  V30 5 1 6 5
M  V30 6 1 7 5
M  V30 7 1 8 4
M  V30 8 1 9 4
M  V30 9 1 10 5
M  V30 10 1 11 6
M  V30 11 1 12 6
M  V30 12 1 13 6
M  V30 13 1 14 7
M  V30 14 1 15 7
M  V30 15 1 16 7
M  V30 16 1 17 1
M  V30 END BOND
M  V30 END CTAB
M  END
$$$$
R-group 417 (16781-4)
     RDKit          3D

  0  0  0  0  0  0  0  0  0  0999 V3000
M  V30 BEGIN CTAB
M  V30 COUNTS 20 20 0 0 1
M  V30 BEGIN ATOM
M  V30 1 O 73.916400 54.603800 42.023800 0
M  V30 2 C 75.165100 55.000500 41.455900 0
M  V30 3 C 75.109600 56.500700 41.466500 0 CFG=2
M  V30 4 C 74.954900 56.971300 42.923500 0
M  V30 5 N 73.683500 57.657500 42.924800 0
M  V30 6 C 73.272000 57.952200 41.724500 0
M  V30 7 O 72.472200 58.857600 41.494400 0
M  V30 8 C 73.848400 56.974500 40.728700 0 CFG=1
M  V30 9 C 73.958900 57.309100 39.245400 0
M  V30 10 H 76.003900 54.659600 42.050300 0
M  V30 11 H 75.323800 54.693500 40.432600 0
M  V30 12 H 76.011700 56.927800 41.024000 0
M  V30 13 H 74.956300 56.144100 43.638900 0
M  V30 14 H 75.754800 57.656300 43.213300 0
M  V30 15 H 73.070700 56.213100 40.716400 0
M  V30 16 H 72.986200 57.658000 38.921200 0
M  V30 17 H 74.715000 58.024300 38.927500 0
M  V30 18 H 74.154000 56.398900 38.674500 0
M  V30 19 H 73.356800 58.152600 43.739200 0
M  V30 20 R 73.578400 53.246500 42.006200 0
M  V30 END ATOM
M  V30 BEGIN BOND
M  V30 1 1 2 1
M  V30 2 1 3 2
M  V30 3 1 4 3
M  V30 4 1 5 4
M  V30 5 1 6 5
M  V30 6 2 7 6
M  V30 7 1 8 3
M  V30 8 1 8 6
M  V30 9 1 9 8
M  V30 10 1 10 2
M  V30 11 1 11 2
M  V30 12 1 3 12 CFG=3
M  V30 13 1 13 4
M  V30 14 1 14 4
M  V30 15 1 8 15 CFG=3
M  V30 16 1 16 9
M  V30 17 1 17 9
M  V30 18 1 18 9
M  V30 19 1 19 5
M  V30 20 1 20 1
M  V30 END BOND
M  V30 END CTAB
M  END
$$$$
R-group 418 (36870-2)
     RDKit          3D

  0  0  0  0  0  0  0  0  0  0999 V3000
M  V30 BEGIN CTAB
M  V30 COUNTS 19 19 0 0 1
M  V30 BEGIN ATOM
M  V30 1 C 74.653500 55.152700 42.125600 0 CFG=2
M  V30 2 C 74.436400 55.781700 43.504000 0
M  V30 3 C 73.107400 56.547500 43.553600 0
M  V30 4 C 73.188400 57.723100 42.593400 0
M  V30 5 N 73.576500 57.258100 41.270100 0
M  V30 6 C 72.957300 57.959100 40.158300 0
M  V30 7 C 74.371100 56.204300 41.033000 0
M  V30 8 O 74.859300 56.058100 39.931600 0
M  V30 9 H 75.720700 54.967400 42.027700 0
M  V30 10 H 74.472900 55.078800 44.326400 0
M  V30 11 H 75.272000 56.462100 43.694600 0
M  V30 12 H 72.872200 56.935100 44.524800 0
M  V30 13 H 72.279400 55.878900 43.324700 0
M  V30 14 H 73.929100 58.454600 42.924400 0
M  V30 15 H 72.242300 58.262800 42.573800 0
M  V30 16 H 73.672200 58.222600 39.374200 0
M  V30 17 H 72.206100 57.291000 39.724900 0
M  V30 18 H 72.486600 58.877700 40.507700 0
M  V30 19 R 73.938500 53.758900 41.972100 0
M  V30 END ATOM
M  V30 BEGIN BOND
M  V30 1 1 2 1
M  V30 2 1 3 2
M  V30 3 1 4 3
M  V30 4 1 5 4
M  V30 5 1 6 5
M  V30 6 1 7 1
M  V30 7 1 7 5
M  V30 8 2 8 7
M  V30 9 1 1 9 CFG=1
M  V30 10 1 10 2
M  V30 11 1 11 2
M  V30 12 1 12 3
M  V30 13 1 13 3
M  V30 14 1 14 4
M  V30 15 1 15 4
M  V30 16 1 16 6
M  V30 17 1 17 6
M  V30 18 1 18 6
M  V30 19 1 19 1
M  V30 END BOND
M  V30 END CTAB
M  END
$$$$
R-group 419 (562-1)
     RDKit          3D

  0  0  0  0  0  0  0  0  0  0999 V3000
M  V30 BEGIN CTAB
M  V30 COUNTS 12 11 0 0 1
M  V30 BEGIN ATOM
M  V30 1 C 72.987400 58.458000 40.931200 0
M  V30 2 N 73.672200 57.181300 41.117500 0
M  V30 3 C 73.818700 56.601000 42.312900 0
M  V30 4 O 73.272200 57.044900 43.317900 0
M  V30 5 C 74.712900 55.366500 42.413400 0
M  V30 6 H 73.272200 58.855700 39.957900 0
M  V30 7 H 71.903700 58.452700 40.945700 0
M  V30 8 H 73.272200 59.154500 41.724700 0
M  V30 9 H 75.150400 55.402800 43.411800 0
M  V30 10 H 75.558200 55.473300 41.734000 0
M  V30 11 H 74.132500 56.772700 40.317500 0
M  V30 12 R 73.988200 54.004300 42.202300 0
M  V30 END ATOM
M  V30 BEGIN BOND
M  V30 1 1 2 1
M  V30 2 1 3 2
M  V30 3 2 4 3
M  V30 4 1 5 3
M  V30 5 1 6 1
M  V30 6 1 7 1
M  V30 7 1 8 1
M  V30 8 1 9 5
M  V30 9 1 10 5
M  V30 10 1 11 2
M  V30 11 1 12 5
M  V30 END BOND
M  V30 END CTAB
M  END
$$$$
R-group 420 (1088-1)
     RDKit          3D

  0  0  0  0  0  0  0  0  0  0999 V3000
M  V30 BEGIN CTAB
M  V30 COUNTS 13 13 0 0 1
M  V30 BEGIN ATOM
M  V30 1 C 74.337200 55.287100 42.107300 0
M  V30 2 O 75.272200 55.588900 42.843500 0
M  V30 3 N 73.672300 56.312000 41.434100 0
M  V30 4 C 73.305100 56.335000 40.026400 0
M  V30 5 C 73.272200 57.854300 40.200600 0
M  V30 6 C 74.210400 57.658000 41.394000 0
M  V30 7 H 74.093900 55.995100 39.353400 0
M  V30 8 H 72.322700 55.931600 39.783000 0
M  V30 9 H 72.302300 58.240300 40.524700 0
M  V30 10 H 73.672300 58.404500 39.346200 0
M  V30 11 H 73.971000 58.255200 42.274100 0
M  V30 12 H 75.275200 57.658000 41.147200 0
M  V30 13 R 73.832300 53.813300 42.070700 0
M  V30 END ATOM
M  V30 BEGIN BOND
M  V30 1 2 2 1
M  V30 2 1 3 1
M  V30 3 1 4 3
M  V30 4 1 5 4
M  V30 5 1 6 3
M  V30 6 1 6 5
M  V30 7 1 7 4
M  V30 8 1 8 4
M  V30 9 1 9 5
M  V30 10 1 10 5
M  V30 11 1 11 6
M  V30 12 1 12 6
M  V30 13 1 13 1
M  V30 END BOND
M  V30 END CTAB
M  END
$$$$
R-group 421 (16602-1)
     RDKit          3D

  0  0  0  0  0  0  0  0  0  0999 V3000
M  V30 BEGIN CTAB
M  V30 COUNTS 15 15 0 0 1
M  V30 BEGIN ATOM
M  V30 1 O 73.272000 54.491200 41.512700 0
M  V30 2 C 72.883200 55.162000 42.691100 0
M  V30 3 C 73.138400 56.672000 42.705000 0
M  V30 4 C 74.376200 56.848600 42.006200 0
M  V30 5 C 74.626100 56.857800 40.676500 0
M  V30 6 N 75.983400 56.978000 40.550100 0
M  V30 7 N 76.472300 57.239800 41.701900 0
M  V30 8 N 75.586400 56.858100 42.613700 0
M  V30 9 H 71.886300 54.857600 43.030100 0
M  V30 10 H 73.662000 54.805900 43.324900 0
M  V30 11 H 72.485800 57.359500 42.181100 0
M  V30 12 H 73.205700 57.040700 43.729300 0
M  V30 13 H 73.964000 56.766600 39.824900 0
M  V30 14 H 75.763600 56.945000 43.602700 0
M  V30 15 R 73.357100 53.085600 41.656000 0
M  V30 END ATOM
M  V30 BEGIN BOND
M  V30 1 1 2 1
M  V30 2 1 3 2
M  V30 3 1 4 3
M  V30 4 2 5 4
M  V30 5 1 6 5
M  V30 6 2 7 6
M  V30 7 1 8 4
M  V30 8 1 8 7
M  V30 9 1 9 2
M  V30 10 1 10 2
M  V30 11 1 11 3
M  V30 12 1 12 3
M  V30 13 1 13 5
M  V30 14 1 14 8
M  V30 15 1 15 1
M  V30 END BOND
M  V30 END CTAB
M  END
$$$$
R-group 422 (13882-2)
     RDKit          3D

  0  0  0  0  0  0  0  0  0  0999 V3000
M  V30 BEGIN CTAB
M  V30 COUNTS 25 26 0 0 1
M  V30 BEGIN ATOM
M  V30 1 C 74.252000 54.832300 43.025800 0 CFG=1
M  V30 2 C 75.494100 55.033300 43.919400 0
M  V30 3 C 75.447700 55.614000 42.529800 0 CFG=2
M  V30 4 C 75.405900 57.111600 42.287100 0
M  V30 5 C 75.840200 57.430200 40.848900 0
M  V30 6 C 74.704000 57.161400 39.799700 0
M  V30 7 C 73.332800 57.734700 40.137100 0
M  V30 8 C 72.979500 57.435200 41.570200 0
M  V30 9 C 74.045100 57.785600 42.588500 0
M  V30 10 H 73.381500 55.399100 43.323200 0
M  V30 11 H 75.442100 55.657600 44.784800 0
M  V30 12 H 76.224900 54.256800 44.121300 0
M  V30 13 H 76.072300 55.096500 41.820900 0
M  V30 14 H 76.151200 57.541100 42.959400 0
M  V30 15 H 76.206700 58.454300 40.908000 0
M  V30 16 H 76.725800 56.857200 40.572400 0
M  V30 17 H 74.872200 57.553000 38.806800 0
M  V30 18 H 74.600700 56.086500 39.673900 0
M  V30 19 H 73.272100 58.802700 39.934500 0
M  V30 20 H 72.594800 57.257900 39.488000 0
M  V30 21 H 72.074300 57.978900 41.828900 0
M  V30 22 H 72.872200 56.365700 41.583300 0
M  V30 23 H 73.701900 57.569900 43.599700 0
M  V30 24 H 74.072200 58.857600 42.522200 0
M  V30 25 R 73.821600 53.500500 42.402300 0
M  V30 END ATOM
M  V30 BEGIN BOND
M  V30 1 1 2 1
M  V30 2 1 3 1
M  V30 3 1 3 2
M  V30 4 1 4 3
M  V30 5 1 5 4
M  V30 6 1 6 5
M  V30 7 1 7 6
M  V30 8 1 8 7
M  V30 9 1 9 4
M  V30 10 1 9 8
M  V30 11 1 1 10 CFG=1
M  V30 12 1 11 2
M  V30 13 1 12 2
M  V30 14 1 3 13 CFG=3
M  V30 15 1 14 4
M  V30 16 1 15 5
M  V30 17 1 16 5
M  V30 18 1 17 6
M  V30 19 1 18 6
M  V30 20 1 19 7
M  V30 21 1 20 7
M  V30 22 1 21 8
M  V30 23 1 22 8
M  V30 24 1 23 9
M  V30 25 1 24 9
M  V30 26 1 25 1
M  V30 END BOND
M  V30 END CTAB
M  END
$$$$
R-group 423 (18195-1)
     RDKit          3D

  0  0  0  0  0  0  0  0  0  0999 V3000
M  V30 BEGIN CTAB
M  V30 COUNTS 12 12 0 0 1
M  V30 BEGIN ATOM
M  V30 1 C 73.871300 54.470000 41.753000 0
M  V30 2 C 74.478400 55.288800 42.670100 0
M  V30 3 C 74.412100 56.644500 42.304900 0
M  V30 4 C 73.729900 56.810500 41.137500 0
M  V30 5 C 73.271500 58.049000 40.577000 0
M  V30 6 F 73.672700 58.237600 39.324600 0
M  V30 7 F 71.986400 58.225800 40.576600 0
M  V30 8 S 73.395700 55.343700 40.318200 0
M  V30 9 H 74.906800 54.995400 43.616700 0
M  V30 10 H 74.777000 57.436200 42.937500 0
M  V30 11 H 73.667500 58.832400 41.227700 0
M  V30 12 R 73.595400 53.023100 41.885300 0
M  V30 END ATOM
M  V30 BEGIN BOND
M  V30 1 2 2 1
M  V30 2 1 3 2
M  V30 3 2 4 3
M  V30 4 1 5 4
M  V30 5 1 6 5
M  V30 6 1 7 5
M  V30 7 1 8 1
M  V30 8 1 8 4
M  V30 9 1 9 2
M  V30 10 1 10 3
M  V30 11 1 11 5
M  V30 12 1 12 1
M  V30 END BOND
M  V30 END CTAB
M  END
$$$$
R-group 424 (24383-1)
     RDKit          3D

  0  0  0  0  0  0  0  0  0  0999 V3000
M  V30 BEGIN CTAB
M  V30 COUNTS 19 19 0 0 1
M  V30 BEGIN ATOM
M  V30 1 C 72.443800 58.776300 41.015800 0
M  V30 2 N 73.277800 57.702400 41.569100 0
M  V30 3 C 73.672900 56.591800 40.961300 0
M  V30 4 O 73.523500 56.416900 39.765600 0
M  V30 5 C 74.330100 55.565900 41.901900 0
M  V30 6 C 74.329800 55.993200 43.385700 0
M  V30 7 C 75.838900 56.234300 43.418300 0
M  V30 8 C 75.804600 55.999700 41.931100 0
M  V30 9 H 72.199600 59.553900 41.742800 0
M  V30 10 H 72.862200 59.255400 40.175200 0
M  V30 11 H 71.529000 58.452700 40.534400 0
M  V30 12 H 73.719300 56.834700 43.700600 0
M  V30 13 H 74.090000 55.232900 44.114200 0
M  V30 14 H 76.190400 57.233000 43.629400 0
M  V30 15 H 76.367600 55.448000 44.001600 0
M  V30 16 H 76.470600 55.278300 41.521900 0
M  V30 17 H 76.076000 56.910300 41.417400 0
M  V30 18 H 73.448500 57.766300 42.567700 0
M  V30 19 R 73.828800 54.040900 41.755400 0
M  V30 END ATOM
M  V30 BEGIN BOND
M  V30 1 1 2 1
M  V30 2 1 3 2
M  V30 3 2 4 3
M  V30 4 1 5 3
M  V30 5 1 6 5
M  V30 6 1 7 6
M  V30 7 1 8 5
M  V30 8 1 8 7
M  V30 9 1 9 1
M  V30 10 1 10 1
M  V30 11 1 11 1
M  V30 12 1 12 6
M  V30 13 1 13 6
M  V30 14 1 14 7
M  V30 15 1 15 7
M  V30 16 1 16 8
M  V30 17 1 17 8
M  V30 18 1 18 2
M  V30 19 1 19 5
M  V30 END BOND
M  V30 END CTAB
M  END
$$$$
R-group 425 (13226-1)
     RDKit          3D

  0  0  0  0  0  0  0  0  0  0999 V3000
M  V30 BEGIN CTAB
M  V30 COUNTS 15 15 0 0 1
M  V30 BEGIN ATOM
M  V30 1 C 74.074500 54.723700 42.038100 0
M  V30 2 C 74.849600 55.556800 42.901800 0
M  V30 3 N 74.718400 56.839300 42.598900 0
M  V30 4 N 73.889000 56.833500 41.545400 0
M  V30 5 C 73.283400 58.020700 41.025100 0
M  V30 6 C 73.519700 58.045500 39.514100 0
M  V30 7 F 73.275900 59.258200 39.026700 0
M  V30 8 F 74.770200 57.658000 39.253900 0
M  V30 9 C 73.672100 55.581700 41.076300 0
M  V30 10 H 75.402600 55.292300 43.791700 0
M  V30 11 H 72.218200 58.015300 41.239700 0
M  V30 12 H 73.672400 58.857800 41.584700 0
M  V30 13 H 72.877400 57.343900 38.981300 0
M  V30 14 H 73.053200 55.420300 40.207200 0
M  V30 15 R 73.680800 53.278800 42.091100 0
M  V30 END ATOM
M  V30 BEGIN BOND
M  V30 1 1 2 1
M  V30 2 2 3 2
M  V30 3 1 4 3
M  V30 4 1 5 4
M  V30 5 1 6 5
M  V30 6 1 7 6
M  V30 7 1 8 6
M  V30 8 2 9 1
M  V30 9 1 9 4
M  V30 10 1 10 2
M  V30 11 1 11 5
M  V30 12 1 12 5
M  V30 13 1 13 6
M  V30 14 1 14 9
M  V30 15 1 15 1
M  V30 END BOND
M  V30 END CTAB
M  END
$$$$
R-group 426 (22433-2)
     RDKit          3D

  0  0  0  0  0  0  0  0  0  0999 V3000
M  V30 BEGIN CTAB
M  V30 COUNTS 21 22 0 0 1
M  V30 BEGIN ATOM
M  V30 1 C 74.078300 54.968800 41.900100 0 CFG=2
M  V30 2 C 73.502300 55.771900 43.067400 0
M  V30 3 C 73.445200 57.183000 42.552300 0 CFG=1
M  V30 4 F 74.082800 58.001700 43.317700 0
M  V30 5 C 74.047600 57.143100 41.191200 0
M  V30 6 N 73.672700 55.806500 40.765700 0
M  V30 7 C 74.440400 55.604300 39.579500 0
M  V30 8 C 73.750900 55.006400 38.363400 0
M  V30 9 C 74.067500 56.457600 38.404100 0
M  V30 10 H 75.166000 55.015300 41.951900 0
M  V30 11 H 72.484600 55.484700 43.324200 0
M  V30 12 H 74.110100 55.655700 43.960400 0
M  V30 13 H 72.472300 57.607200 42.492000 0
M  V30 14 H 73.639500 57.934000 40.560100 0
M  V30 15 H 75.132900 57.260200 41.247400 0
M  V30 16 H 75.506800 55.463200 39.725100 0
M  V30 17 H 74.352300 54.357500 37.733400 0
M  V30 18 H 72.695400 54.760000 38.410300 0
M  V30 19 H 73.214900 57.120100 38.525200 0
M  V30 20 H 74.872200 56.848700 37.795200 0
M  V30 21 R 73.642700 53.473700 41.962100 0
M  V30 END ATOM
M  V30 BEGIN BOND
M  V30 1 1 2 1
M  V30 2 1 3 2
M  V30 3 1 4 3
M  V30 4 1 5 3
M  V30 5 1 6 1
M  V30 6 1 6 5
M  V30 7 1 7 6
M  V30 8 1 8 7
M  V30 9 1 9 7
M  V30 10 1 9 8
M  V30 11 1 1 10 CFG=1
M  V30 12 1 11 2
M  V30 13 1 12 2
M  V30 14 1 3 13 CFG=3
M  V30 15 1 14 5
M  V30 16 1 15 5
M  V30 17 1 16 7
M  V30 18 1 17 8
M  V30 19 1 18 8
M  V30 20 1 19 9
M  V30 21 1 20 9
M  V30 22 1 21 1
M  V30 END BOND
M  V30 END CTAB
M  END
$$$$
R-group 427 (5298-2)
     RDKit          3D

  0  0  0  0  0  0  0  0  0  0999 V3000
M  V30 BEGIN CTAB
M  V30 COUNTS 21 22 0 0 1
M  V30 BEGIN ATOM
M  V30 1 N 73.476000 54.579300 41.860400 0
M  V30 2 C 74.473900 55.205900 41.227600 0
M  V30 3 O 75.272500 54.634800 40.524800 0
M  V30 4 C 74.644700 56.690400 41.433600 0 CFG=2
M  V30 5 C 74.547200 56.996500 42.919700 0
M  V30 6 N 73.272300 57.658800 42.980200 0
M  V30 7 C 72.872300 58.221700 41.834500 0
M  V30 8 O 72.072300 59.171000 41.724600 0
M  V30 9 C 73.537600 57.479700 40.751400 0
M  V30 10 C 73.671700 58.058200 39.372800 0
M  V30 11 C 72.679800 56.951600 39.606600 0
M  V30 12 H 75.614200 57.006000 41.046400 0
M  V30 13 H 74.574100 56.112600 43.561200 0
M  V30 14 H 75.349200 57.657600 43.251900 0
M  V30 15 H 73.279200 59.055800 39.188900 0
M  V30 16 H 74.629200 57.843300 38.915500 0
M  V30 17 H 72.905300 55.989700 39.154600 0
M  V30 18 H 71.622200 57.209000 39.626800 0
M  V30 19 H 72.866200 55.138900 42.437600 0
M  V30 20 H 72.898600 57.963100 43.868500 0
M  V30 21 R 73.298400 53.147300 41.932500 0
M  V30 END ATOM
M  V30 BEGIN BOND
M  V30 1 1 2 1
M  V30 2 2 3 2
M  V30 3 1 4 2
M  V30 4 1 5 4
M  V30 5 1 6 5
M  V30 6 1 7 6
M  V30 7 2 8 7
M  V30 8 1 9 4
M  V30 9 1 9 7
M  V30 10 1 10 9
M  V30 11 1 11 9
M  V30 12 1 11 10
M  V30 13 1 4 12 CFG=3
M  V30 14 1 13 5
M  V30 15 1 14 5
M  V30 16 1 15 10
M  V30 17 1 16 10
M  V30 18 1 17 11
M  V30 19 1 18 11
M  V30 20 1 19 1
M  V30 21 1 20 6
M  V30 22 1 21 1
M  V30 END BOND
M  V30 END CTAB
M  END
$$$$
R-group 428 (13624-2)
     RDKit          3D

  0  0  0  0  0  0  0  0  0  0999 V3000
M  V30 BEGIN CTAB
M  V30 COUNTS 16 16 0 0 1
M  V30 BEGIN ATOM
M  V30 1 C 74.368200 55.717700 41.781000 0 CFG=1
M  V30 2 C 75.833800 55.984800 41.388100 0
M  V30 3 C 74.215600 56.320800 43.210400 0
M  V30 4 C 73.639200 57.694900 43.121900 0
M  V30 5 C 73.266400 57.668000 41.678800 0
M  V30 6 O 72.470700 58.493400 41.285700 0
M  V30 7 N 73.664600 56.646400 40.946500 0
M  V30 8 H 76.472200 55.534200 42.123200 0
M  V30 9 H 76.161800 55.662900 40.408500 0
M  V30 10 H 76.072400 57.057800 41.416600 0
M  V30 11 H 73.575500 55.707400 43.821400 0
M  V30 12 H 75.169200 56.447900 43.724600 0
M  V30 13 H 72.758500 57.888000 43.737600 0
M  V30 14 H 74.363800 58.439600 43.293300 0
M  V30 15 H 73.296900 56.495700 40.000200 0
M  V30 16 R 73.800500 54.234900 41.757200 0
M  V30 END ATOM
M  V30 BEGIN BOND
M  V30 1 1 2 1
M  V30 2 1 3 1
M  V30 3 1 4 3
M  V30 4 1 5 4
M  V30 5 2 6 5
M  V30 6 1 7 1
M  V30 7 1 7 5
M  V30 8 1 8 2
M  V30 9 1 9 2
M  V30 10 1 10 2
M  V30 11 1 11 3
M  V30 12 1 12 3
M  V30 13 1 13 4
M  V30 14 1 14 4
M  V30 15 1 15 7
M  V30 16 1 1 16 CFG=1
M  V30 END BOND
M  V30 END CTAB
M  END
$$$$
R-group 429 (2326-1)
     RDKit          3D

  0  0  0  0  0  0  0  0  0  0999 V3000
M  V30 BEGIN CTAB
M  V30 COUNTS 18 17 0 0 1
M  V30 BEGIN ATOM
M  V30 1 C 73.067600 54.644700 42.533900 0
M  V30 2 C 73.327200 55.974700 41.845500 0
M  V30 3 C 74.803800 56.337700 41.802700 0
M  V30 4 O 75.482800 56.207400 42.826000 0
M  V30 5 N 75.295200 56.858000 40.664700 0
M  V30 6 C 76.581400 57.545000 40.753000 0
M  V30 7 C 74.470900 57.224700 39.498300 0
M  V30 8 H 72.038300 54.593900 42.891300 0
M  V30 9 H 73.673100 54.731300 43.412700 0
M  V30 10 H 72.871600 55.948700 40.864900 0
M  V30 11 H 72.872200 56.786400 42.411300 0
M  V30 12 H 77.272200 56.945400 41.324500 0
M  V30 13 H 77.030100 57.812700 39.800600 0
M  V30 14 H 76.473600 58.458000 41.323700 0
M  V30 15 H 73.486900 57.601500 39.780100 0
M  V30 16 H 74.872400 58.053300 38.922900 0
M  V30 17 H 74.345000 56.376200 38.824400 0
M  V30 18 R 73.453100 53.341200 41.805600 0
M  V30 END ATOM
M  V30 BEGIN BOND
M  V30 1 1 2 1
M  V30 2 1 3 2
M  V30 3 2 4 3
M  V30 4 1 5 3
M  V30 5 1 6 5
M  V30 6 1 7 5
M  V30 7 1 8 1
M  V30 8 1 9 1
M  V30 9 1 10 2
M  V30 10 1 11 2
M  V30 11 1 12 6
M  V30 12 1 13 6
M  V30 13 1 14 6
M  V30 14 1 15 7
M  V30 15 1 16 7
M  V30 16 1 17 7
M  V30 17 1 18 1
M  V30 END BOND
M  V30 END CTAB
M  END
$$$$
R-group 430 (19391-1)
     RDKit          3D

  0  0  0  0  0  0  0  0  0  0999 V3000
M  V30 BEGIN CTAB
M  V30 COUNTS 19 19 0 0 1
M  V30 BEGIN ATOM
M  V30 1 C 74.165600 57.235300 39.218300 0
M  V30 2 O 74.554600 56.667100 40.442800 0
M  V30 3 C 74.844900 57.643900 41.425000 0
M  V30 4 C 74.860400 56.976500 42.767100 0 CFG=1
M  V30 5 C 73.574600 56.257400 43.154900 0
M  V30 6 C 74.341200 54.951500 43.257300 0 CFG=2
M  V30 7 C 75.633300 55.669900 42.887300 0
M  V30 8 H 74.146300 56.466000 38.445700 0
M  V30 9 H 73.166200 57.658000 39.301900 0
M  V30 10 H 74.857200 58.023000 38.922200 0
M  V30 11 H 74.072100 58.418300 41.436300 0
M  V30 12 H 75.832900 58.058000 41.221600 0
M  V30 13 H 75.168800 57.658200 43.560700 0
M  V30 14 H 72.872300 56.264700 42.336100 0
M  V30 15 H 73.115700 56.579400 44.095500 0
M  V30 16 H 74.472100 54.801100 44.329600 0
M  V30 17 H 76.368800 55.667600 43.694800 0
M  V30 18 H 76.072300 55.344800 41.950600 0
M  V30 19 R 73.863900 53.654500 42.535400 0
M  V30 END ATOM
M  V30 BEGIN BOND
M  V30 1 1 2 1
M  V30 2 1 3 2
M  V30 3 1 4 3
M  V30 4 1 5 4
M  V30 5 1 6 5
M  V30 6 1 7 4
M  V30 7 1 7 6
M  V30 8 1 8 1
M  V30 9 1 9 1
M  V30 10 1 10 1
M  V30 11 1 11 3
M  V30 12 1 12 3
M  V30 13 1 4 13 CFG=1
M  V30 14 1 14 5
M  V30 15 1 15 5
M  V30 16 1 6 16 CFG=1
M  V30 17 1 17 7
M  V30 18 1 18 7
M  V30 19 1 19 6
M  V30 END BOND
M  V30 END CTAB
M  END
$$$$
R-group 431 (21466-1)
     RDKit          3D

  0  0  0  0  0  0  0  0  0  0999 V3000
M  V30 BEGIN CTAB
M  V30 COUNTS 16 16 0 0 1
M  V30 BEGIN ATOM
M  V30 1 C 73.868700 54.829300 41.678100 0
M  V30 2 C 75.326600 55.159000 41.350200 0
M  V30 3 C 75.799300 56.518200 41.796300 0
M  V30 4 N 76.469500 57.257400 40.925500 0
M  V30 5 O 75.672900 56.857900 42.956400 0
M  V30 6 C 72.894400 55.732300 40.981300 0
M  V30 7 C 72.966800 55.718600 42.520600 0
M  V30 8 H 76.000400 54.485400 41.857900 0
M  V30 9 H 75.508000 55.069200 40.285300 0
M  V30 10 H 76.649000 56.921300 39.990500 0
M  V30 11 H 73.267800 56.626000 40.486800 0
M  V30 12 H 72.054700 55.257900 40.483800 0
M  V30 13 H 72.133800 55.251600 43.043900 0
M  V30 14 H 73.307100 56.635700 42.987400 0
M  V30 15 H 76.857200 58.136800 41.234800 0
M  V30 16 R 73.557900 53.330900 41.764900 0
M  V30 END ATOM
M  V30 BEGIN BOND
M  V30 1 1 2 1
M  V30 2 1 3 2
M  V30 3 1 4 3
M  V30 4 2 5 3
M  V30 5 1 6 1
M  V30 6 1 7 1
M  V30 7 1 7 6
M  V30 8 1 8 2
M  V30 9 1 9 2
M  V30 10 1 10 4
M  V30 11 1 11 6
M  V30 12 1 12 6
M  V30 13 1 13 7
M  V30 14 1 14 7
M  V30 15 1 15 4
M  V30 16 1 16 1
M  V30 END BOND
M  V30 END CTAB
M  END
$$$$
R-group 432 (6815-2)
     RDKit          3D

  0  0  0  0  0  0  0  0  0  0999 V3000
M  V30 BEGIN CTAB
M  V30 COUNTS 13 12 0 0 1
M  V30 BEGIN ATOM
M  V30 1 C 74.338200 55.479700 42.696900 0 CFG=1
M  V30 2 O 75.450800 55.933100 41.924000 0
M  V30 3 C 73.233200 56.517400 42.485600 0
M  V30 4 C 73.534200 58.021900 42.606800 0
M  V30 5 O 72.473400 58.854600 42.097600 0
M  V30 6 H 74.609900 55.514300 43.761700 0
M  V30 7 H 72.875900 56.387100 41.453500 0
M  V30 8 H 72.459100 56.290300 43.222900 0
M  V30 9 H 73.761800 58.270600 43.641300 0
M  V30 10 H 74.378600 58.247800 41.967600 0
M  V30 11 H 75.868800 56.575600 42.455800 0
M  V30 12 H 71.636700 58.487300 42.367400 0
M  V30 13 R 73.844000 54.036400 42.321100 0
M  V30 END ATOM
M  V30 BEGIN BOND
M  V30 1 1 2 1
M  V30 2 1 3 1
M  V30 3 1 4 3
M  V30 4 1 5 4
M  V30 5 1 1 6 CFG=1
M  V30 6 1 7 3
M  V30 7 1 8 3
M  V30 8 1 9 4
M  V30 9 1 10 4
M  V30 10 1 11 2
M  V30 11 1 12 5
M  V30 12 1 13 1
M  V30 END BOND
M  V30 END CTAB
M  END
$$$$
R-group 433 (20696-2)
     RDKit          3D

  0  0  0  0  0  0  0  0  0  0999 V3000
M  V30 BEGIN CTAB
M  V30 COUNTS 18 17 0 0 1
M  V30 BEGIN ATOM
M  V30 1 C 74.104700 57.655600 39.324700 0
M  V30 2 C 74.766300 56.997100 40.504400 0
M  V30 3 O 73.669800 56.624200 41.292600 0
M  V30 4 C 73.951900 56.350000 42.636700 0
M  V30 5 C 74.836900 55.106900 42.762500 0 CFG=1
M  V30 6 C 75.573200 55.251100 44.116600 0
M  V30 7 H 74.872000 58.057600 38.668100 0
M  V30 8 H 73.523800 56.923500 38.760700 0
M  V30 9 H 73.428300 58.458300 39.619000 0
M  V30 10 H 75.446100 57.658000 41.037100 0
M  V30 11 H 75.346600 56.147500 40.158300 0
M  V30 12 H 73.015100 56.201100 43.175500 0
M  V30 13 H 74.414100 57.237900 43.071600 0
M  V30 14 H 75.659400 55.161500 42.054400 0
M  V30 15 H 74.892000 55.168500 44.964000 0
M  V30 16 H 76.371000 54.525000 44.250700 0
M  V30 17 H 76.072400 56.219600 44.167200 0
M  V30 18 R 74.049200 53.771800 42.450900 0
M  V30 END ATOM
M  V30 BEGIN BOND
M  V30 1 1 2 1
M  V30 2 1 3 2
M  V30 3 1 4 3
M  V30 4 1 5 4
M  V30 5 1 6 5
M  V30 6 1 7 1
M  V30 7 1 8 1
M  V30 8 1 9 1
M  V30 9 1 10 2
M  V30 10 1 11 2
M  V30 11 1 12 4
M  V30 12 1 13 4
M  V30 13 1 5 14 CFG=3
M  V30 14 1 15 6
M  V30 15 1 16 6
M  V30 16 1 17 6
M  V30 17 1 18 5
M  V30 END BOND
M  V30 END CTAB
M  END
$$$$
R-group 434 (3723-2)
     RDKit          3D

  0  0  0  0  0  0  0  0  0  0999 V3000
M  V30 BEGIN CTAB
M  V30 COUNTS 20 19 0 0 1
M  V30 BEGIN ATOM
M  V30 1 N 73.504000 54.590500 41.914600 0
M  V30 2 C 74.803300 55.260600 41.751200 0 CFG=2
M  V30 3 C 75.272400 55.723200 43.117800 0
M  V30 4 N 75.274200 54.858000 44.124500 0
M  V30 5 O 75.672400 56.858100 43.308500 0
M  V30 6 C 74.757200 56.386500 40.670700 0
M  V30 7 C 76.122900 57.085400 40.470400 0
M  V30 8 C 73.634200 57.419400 40.853600 0
M  V30 9 H 72.762700 55.067100 41.425100 0
M  V30 10 H 75.570800 54.557000 41.433500 0
M  V30 11 H 74.894700 53.939800 43.952500 0
M  V30 12 H 74.531700 55.903100 39.720800 0
M  V30 13 H 76.519400 57.620200 41.327600 0
M  V30 14 H 76.072200 57.863600 39.724800 0
M  V30 15 H 76.872000 56.357100 40.174400 0
M  V30 16 H 73.781800 58.049000 41.731000 0
M  V30 17 H 73.580300 58.058400 39.974600 0
M  V30 18 H 72.656100 56.950700 40.927000 0
M  V30 19 H 75.545500 55.154700 45.048500 0
M  V30 20 R 73.416700 53.149100 41.748400 0
M  V30 END ATOM
M  V30 BEGIN BOND
M  V30 1 1 2 1
M  V30 2 1 3 2
M  V30 3 1 4 3
M  V30 4 2 5 3
M  V30 5 1 6 2
M  V30 6 1 7 6
M  V30 7 1 8 6
M  V30 8 1 9 1
M  V30 9 1 2 10 CFG=3
M  V30 10 1 11 4
M  V30 11 1 12 6
M  V30 12 1 13 7
M  V30 13 1 14 7
M  V30 14 1 15 7
M  V30 15 1 16 8
M  V30 16 1 17 8
M  V30 17 1 18 8
M  V30 18 1 19 4
M  V30 19 1 20 1
M  V30 END BOND
M  V30 END CTAB
M  END
$$$$
R-group 435 (39845-1)
     RDKit          3D

  0  0  0  0  0  0  0  0  0  0999 V3000
M  V30 BEGIN CTAB
M  V30 COUNTS 11 11 0 0 1
M  V30 BEGIN ATOM
M  V30 1 O 73.086400 54.458000 42.124600 0
M  V30 2 C 74.072200 55.348100 41.880700 0
M  V30 3 C 74.473000 55.994300 40.743500 0
M  V30 4 C 75.540900 56.857900 41.121000 0
M  V30 5 C 75.687200 56.779900 42.477300 0
M  V30 6 N 74.802400 55.834400 42.924600 0
M  V30 7 H 74.064200 55.879500 39.752000 0
M  V30 8 H 76.108400 57.511100 40.474200 0
M  V30 9 H 76.345800 57.299000 43.160200 0
M  V30 10 H 74.666000 55.560600 43.887800 0
M  V30 11 R 73.348000 53.120300 41.769600 0
M  V30 END ATOM
M  V30 BEGIN BOND
M  V30 1 1 2 1
M  V30 2 2 3 2
M  V30 3 1 4 3
M  V30 4 2 5 4
M  V30 5 1 6 2
M  V30 6 1 6 5
M  V30 7 1 7 3
M  V30 8 1 8 4
M  V30 9 1 9 5
M  V30 10 1 10 6
M  V30 11 1 11 1
M  V30 END BOND
M  V30 END CTAB
M  END
$$$$
R-group 436 (17735-1)
     RDKit          3D

  0  0  0  0  0  0  0  0  0  0999 V3000
M  V30 BEGIN CTAB
M  V30 COUNTS 16 15 0 0 1
M  V30 BEGIN ATOM
M  V30 1 O 73.332300 54.765800 41.790300 0
M  V30 2 C 72.983400 55.494600 42.947600 0
M  V30 3 C 73.264200 56.982400 42.899600 0
M  V30 4 C 73.865900 57.420100 41.605500 0
M  V30 5 F 73.135800 57.078100 40.539800 0
M  V30 6 F 73.821800 58.726000 41.725100 0
M  V30 7 C 75.290500 56.857500 41.512400 0
M  V30 8 N 76.072200 56.858200 42.579400 0
M  V30 9 O 75.669700 56.279700 40.524000 0
M  V30 10 H 71.978000 55.285000 43.324400 0
M  V30 11 H 73.680200 55.224300 43.723400 0
M  V30 12 H 72.471400 57.635500 43.162500 0
M  V30 13 H 73.916600 57.254600 43.721000 0
M  V30 14 H 75.813400 57.351000 43.421900 0
M  V30 15 H 76.968300 56.402100 42.503600 0
M  V30 16 R 73.281300 53.360500 41.904100 0
M  V30 END ATOM
M  V30 BEGIN BOND
M  V30 1 1 2 1
M  V30 2 1 3 2
M  V30 3 1 4 3
M  V30 4 1 5 4
M  V30 5 1 6 4
M  V30 6 1 7 4
M  V30 7 1 8 7
M  V30 8 2 9 7
M  V30 9 1 10 2
M  V30 10 1 11 2
M  V30 11 1 12 3
M  V30 12 1 13 3
M  V30 13 1 14 8
M  V30 14 1 15 8
M  V30 15 1 16 1
M  V30 END BOND
M  V30 END CTAB
M  END
$$$$
R-group 437 (14307-1)
     RDKit          3D

  0  0  0  0  0  0  0  0  0  0999 V3000
M  V30 BEGIN CTAB
M  V30 COUNTS 12 12 0 0 1
M  V30 BEGIN ATOM
M  V30 1 C 74.012000 54.477600 42.259700 0
M  V30 2 C 74.870700 55.307900 42.925100 0
M  V30 3 C 74.754100 56.562400 42.288200 0
M  V30 4 C 73.831900 56.355800 41.306000 0
M  V30 5 C 73.273900 57.119300 40.230500 0
M  V30 6 F 74.227500 57.257000 39.326600 0
M  V30 7 F 72.243100 56.498800 39.653100 0
M  V30 8 F 72.872600 58.276200 40.708300 0
M  V30 9 O 73.368000 55.121900 41.308200 0
M  V30 10 H 75.521000 55.067700 43.757900 0
M  V30 11 H 75.283900 57.476400 42.499700 0
M  V30 12 R 73.639000 53.054900 42.276400 0
M  V30 END ATOM
M  V30 BEGIN BOND
M  V30 1 2 2 1
M  V30 2 1 3 2
M  V30 3 2 4 3
M  V30 4 1 5 4
M  V30 5 1 6 5
M  V30 6 1 7 5
M  V30 7 1 8 5
M  V30 8 1 9 1
M  V30 9 1 9 4
M  V30 10 1 10 2
M  V30 11 1 11 3
M  V30 12 1 12 1
M  V30 END BOND
M  V30 END CTAB
M  END
$$$$
R-group 438 (3143-1)
     RDKit          3D

  0  0  0  0  0  0  0  0  0  0999 V3000
M  V30 BEGIN CTAB
M  V30 COUNTS 15 15 0 0 1
M  V30 BEGIN ATOM
M  V30 1 C 77.115200 57.901500 40.925100 0
M  V30 2 O 76.462100 56.757100 40.524700 0
M  V30 3 C 75.328000 56.377500 41.119200 0
M  V30 4 C 74.959300 55.054600 40.933400 0
M  V30 5 C 73.886900 54.578500 41.675000 0
M  V30 6 C 73.272500 55.470200 42.524800 0
M  V30 7 C 73.672300 56.800600 42.606000 0
M  V30 8 N 74.687100 57.247900 41.899900 0
M  V30 9 H 77.908800 58.060500 40.196700 0
M  V30 10 H 76.472300 58.773700 40.924900 0
M  V30 11 H 77.503900 57.658300 41.917600 0
M  V30 12 H 75.597400 54.420900 40.344200 0
M  V30 13 H 72.432600 55.173800 43.129300 0
M  V30 14 H 73.173100 57.505300 43.253200 0
M  V30 15 R 73.512100 53.134400 41.741000 0
M  V30 END ATOM
M  V30 BEGIN BOND
M  V30 1 1 2 1
M  V30 2 1 3 2
M  V30 3 2 4 3
M  V30 4 1 5 4
M  V30 5 2 6 5
M  V30 6 1 7 6
M  V30 7 1 8 3
M  V30 8 2 8 7
M  V30 9 1 9 1
M  V30 10 1 10 1
M  V30 11 1 11 1
M  V30 12 1 12 4
M  V30 13 1 13 6
M  V30 14 1 14 7
M  V30 15 1 15 5
M  V30 END BOND
M  V30 END CTAB
M  END
$$$$
R-group 439 (4956-1)
     RDKit          3D

  0  0  0  0  0  0  0  0  0  0999 V3000
M  V30 BEGIN CTAB
M  V30 COUNTS 23 22 0 0 1
M  V30 BEGIN ATOM
M  V30 1 C 74.441600 54.805600 42.663700 0 CFG=2
M  V30 2 C 75.177700 55.068700 43.999000 0
M  V30 3 C 73.271900 55.739100 42.558800 0
M  V30 4 C 73.563600 57.205300 42.584000 0
M  V30 5 C 74.374400 57.658200 41.383500 0
M  V30 6 C 73.842300 57.238900 39.994900 0
M  V30 7 C 75.923200 57.540700 41.491700 0
M  V30 8 H 75.160200 55.013400 41.881800 0
M  V30 9 H 74.478600 54.948900 44.833200 0
M  V30 10 H 76.048100 54.431200 44.133200 0
M  V30 11 H 75.618000 56.060600 44.041800 0
M  V30 12 H 72.515500 55.532200 43.319100 0
M  V30 13 H 72.872300 55.539300 41.583100 0
M  V30 14 H 74.023400 57.530500 43.513200 0
M  V30 15 H 72.593700 57.710500 42.564300 0
M  V30 16 H 74.072200 58.681500 41.560500 0
M  V30 17 H 74.061500 56.191300 39.783500 0
M  V30 18 H 74.294900 57.819200 39.193000 0
M  V30 19 H 72.763700 57.374200 39.924500 0
M  V30 20 H 76.304000 56.593100 41.114900 0
M  V30 21 H 76.450300 58.306700 40.922900 0
M  V30 22 H 76.264700 57.657500 42.521400 0
M  V30 23 R 73.874600 53.388000 42.365900 0
M  V30 END ATOM
M  V30 BEGIN BOND
M  V30 1 1 2 1
M  V30 2 1 3 1
M  V30 3 1 4 3
M  V30 4 1 5 4
M  V30 5 1 6 5
M  V30 6 1 7 5
M  V30 7 1 1 8 CFG=3
M  V30 8 1 9 2
M  V30 9 1 10 2
M  V30 10 1 11 2
M  V30 11 1 12 3
M  V30 12 1 13 3
M  V30 13 1 14 4
M  V30 14 1 15 4
M  V30 15 1 16 5
M  V30 16 1 17 6
M  V30 17 1 18 6
M  V30 18 1 19 6
M  V30 19 1 20 7
M  V30 20 1 21 7
M  V30 21 1 22 7
M  V30 22 1 23 1
M  V30 END BOND
M  V30 END CTAB
M  END
$$$$
R-group 440 (5036-1)
     RDKit          3D

  0  0  0  0  0  0  0  0  0  0999 V3000
M  V30 BEGIN CTAB
M  V30 COUNTS 21 20 0 0 1
M  V30 BEGIN ATOM
M  V30 1 C 74.100900 55.039900 43.120500 0
M  V30 2 C 73.014100 56.119600 43.324600 0
M  V30 3 C 73.273800 57.520300 42.726000 0
M  V30 4 O 73.272200 57.658100 41.313600 0
M  V30 5 C 74.237700 56.936800 40.562800 0
M  V30 6 C 75.732700 57.180100 40.884300 0
M  V30 7 C 73.914400 57.231600 39.114300 0
M  V30 8 H 74.484900 54.934800 44.131500 0
M  V30 9 H 74.975200 55.394300 42.590700 0
M  V30 10 H 72.008000 55.709300 43.324700 0
M  V30 11 H 73.025400 56.377000 44.380900 0
M  V30 12 H 72.483400 58.181300 43.087000 0
M  V30 13 H 74.196700 57.932800 43.132300 0
M  V30 14 H 74.019500 55.898800 40.698800 0
M  V30 15 H 76.330200 56.346600 40.515700 0
M  V30 16 H 76.142600 58.058000 40.400800 0
M  V30 17 H 75.941100 57.260600 41.949100 0
M  V30 18 H 74.548600 56.664000 38.435600 0
M  V30 19 H 72.878400 56.980400 38.887700 0
M  V30 20 H 74.048900 58.295000 38.924700 0
M  V30 21 R 73.685400 53.623300 42.595900 0
M  V30 END ATOM
M  V30 BEGIN BOND
M  V30 1 1 2 1
M  V30 2 1 3 2
M  V30 3 1 4 3
M  V30 4 1 5 4
M  V30 5 1 6 5
M  V30 6 1 7 5
M  V30 7 1 8 1
M  V30 8 1 9 1
M  V30 9 1 10 2
M  V30 10 1 11 2
M  V30 11 1 12 3
M  V30 12 1 13 3
M  V30 13 1 14 5
M  V30 14 1 15 6
M  V30 15 1 16 6
M  V30 16 1 17 6
M  V30 17 1 18 7
M  V30 18 1 19 7
M  V30 19 1 20 7
M  V30 20 1 21 1
M  V30 END BOND
M  V30 END CTAB
M  END
$$$$
R-group 441 (42760-2)
     RDKit          3D

  0  0  0  0  0  0  0  0  0  0999 V3000
M  V30 BEGIN CTAB
M  V30 COUNTS 19 18 0 0 1
M  V30 BEGIN ATOM
M  V30 1 C 76.433500 57.519000 40.833500 0
M  V30 2 O 76.202400 56.465900 41.745500 0
M  V30 3 C 75.427600 56.816200 42.872600 0
M  V30 4 C 73.963600 56.923300 42.434300 0
M  V30 5 O 73.671500 55.767800 41.662700 0
M  V30 6 C 73.353600 54.597300 42.416700 0 CFG=1
M  V30 7 C 71.885100 54.458000 42.737800 0
M  V30 8 H 77.256800 57.245000 40.189900 0
M  V30 9 H 75.565700 57.657900 40.194700 0
M  V30 10 H 76.707200 58.454600 41.320700 0
M  V30 11 H 75.796400 57.725200 43.334200 0
M  V30 12 H 75.559800 56.033900 43.618200 0
M  V30 13 H 73.827000 57.802500 41.805500 0
M  V30 14 H 73.291100 57.040400 43.284400 0
M  V30 15 H 73.894400 54.696800 43.342200 0
M  V30 16 H 71.652300 53.568800 43.324500 0
M  V30 17 H 71.672400 55.343700 43.324800 0
M  V30 18 H 71.272600 54.443700 41.836500 0
M  V30 19 R 73.750500 53.323600 41.693900 0
M  V30 END ATOM
M  V30 BEGIN BOND
M  V30 1 1 2 1
M  V30 2 1 3 2
M  V30 3 1 4 3
M  V30 4 1 5 4
M  V30 5 1 6 5
M  V30 6 1 7 6
M  V30 7 1 8 1
M  V30 8 1 9 1
M  V30 9 1 10 1
M  V30 10 1 11 3
M  V30 11 1 12 3
M  V30 12 1 13 4
M  V30 13 1 14 4
M  V30 14 1 6 15 CFG=1
M  V30 15 1 16 7
M  V30 16 1 17 7
M  V30 17 1 18 7
M  V30 18 1 19 6
M  V30 END BOND
M  V30 END CTAB
M  END
$$$$
R-group 442 (36587-1)
     RDKit          3D

  0  0  0  0  0  0  0  0  0  0999 V3000
M  V30 BEGIN CTAB
M  V30 COUNTS 17 17 0 0 1
M  V30 BEGIN ATOM
M  V30 1 C 74.774800 55.159500 42.112500 0 CFG=2
M  V30 2 C 74.539300 55.906800 43.411900 0
M  V30 3 O 73.272200 56.547700 43.324700 0
M  V30 4 C 73.259600 57.627100 42.426400 0
M  V30 5 C 73.672200 57.105600 41.068900 0
M  V30 6 O 73.272200 57.658000 40.063000 0
M  V30 7 N 74.555600 56.112400 41.028300 0
M  V30 8 C 75.469100 56.147000 39.930600 0
M  V30 9 H 75.829300 54.901100 42.103200 0
M  V30 10 H 74.547000 55.258000 44.282900 0
M  V30 11 H 75.333100 56.640300 43.571600 0
M  V30 12 H 72.279700 58.096000 42.376900 0
M  V30 13 H 73.963900 58.394200 42.746000 0
M  V30 14 H 75.879900 57.147700 39.787300 0
M  V30 15 H 76.311000 55.480900 40.124700 0
M  V30 16 H 74.872200 55.885100 39.047700 0
M  V30 17 R 73.950900 53.829600 42.030200 0
M  V30 END ATOM
M  V30 BEGIN BOND
M  V30 1 1 2 1
M  V30 2 1 3 2
M  V30 3 1 4 3
M  V30 4 1 5 4
M  V30 5 2 6 5
M  V30 6 1 7 1
M  V30 7 1 7 5
M  V30 8 1 8 7
M  V30 9 1 1 9 CFG=1
M  V30 10 1 10 2
M  V30 11 1 11 2
M  V30 12 1 12 4
M  V30 13 1 13 4
M  V30 14 1 14 8
M  V30 15 1 15 8
M  V30 16 1 16 8
M  V30 17 1 17 1
M  V30 END BOND
M  V30 END CTAB
M  END
$$$$
R-group 443 (16787-2)
     RDKit          3D

  0  0  0  0  0  0  0  0  0  0999 V3000
M  V30 BEGIN CTAB
M  V30 COUNTS 19 19 0 0 1
M  V30 BEGIN ATOM
M  V30 1 O 73.755100 54.574000 41.935200 0
M  V30 2 C 75.129700 54.915800 41.751300 0
M  V30 3 C 75.186300 56.406500 41.631100 0 CFG=2
M  V30 4 C 74.824000 56.987300 42.984900 0
M  V30 5 N 73.584000 57.658000 42.705100 0
M  V30 6 C 73.272400 57.658700 41.415100 0
M  V30 7 O 72.472900 58.456800 40.929700 0
M  V30 8 N 74.118800 56.857900 40.758500 0
M  V30 9 C 74.285700 56.857800 39.316500 0
M  V30 10 H 75.672300 54.626700 42.641900 0
M  V30 11 H 75.632300 54.468600 40.902000 0
M  V30 12 H 76.166000 56.753800 41.298500 0
M  V30 13 H 74.659300 56.203600 43.724500 0
M  V30 14 H 75.596300 57.657100 43.355700 0
M  V30 15 H 74.223500 57.873900 38.926500 0
M  V30 16 H 75.259300 56.457800 39.048500 0
M  V30 17 H 73.513100 56.253600 38.840700 0
M  V30 18 H 73.121600 58.246700 43.379700 0
M  V30 19 R 73.431100 53.205600 41.953700 0
M  V30 END ATOM
M  V30 BEGIN BOND
M  V30 1 1 2 1
M  V30 2 1 3 2
M  V30 3 1 4 3
M  V30 4 1 5 4
M  V30 5 1 6 5
M  V30 6 2 7 6
M  V30 7 1 8 3
M  V30 8 1 8 6
M  V30 9 1 9 8
M  V30 10 1 10 2
M  V30 11 1 11 2
M  V30 12 1 3 12 CFG=3
M  V30 13 1 13 4
M  V30 14 1 14 4
M  V30 15 1 15 9
M  V30 16 1 16 9
M  V30 17 1 17 9
M  V30 18 1 18 5
M  V30 19 1 19 1
M  V30 END BOND
M  V30 END CTAB
M  END
$$$$
R-group 444 (24554-1)
     RDKit          3D

  0  0  0  0  0  0  0  0  0  0999 V3000
M  V30 BEGIN CTAB
M  V30 COUNTS 23 23 0 0 1
M  V30 BEGIN ATOM
M  V30 1 O 73.660400 54.389400 42.524300 0
M  V30 2 C 74.882800 55.110200 42.447300 0 CFG=2
M  V30 3 C 75.515100 55.280300 43.850500 0
M  V30 4 C 74.411900 56.427900 41.853700 0
M  V30 5 C 73.720700 56.242800 40.498200 0
M  V30 6 C 73.169000 57.542800 39.942700 0
M  V30 7 O 72.472600 58.337400 40.924700 0
M  V30 8 C 73.086800 58.457700 42.176300 0
M  V30 9 C 73.410100 57.126700 42.780000 0
M  V30 10 H 75.615800 54.667400 41.777100 0
M  V30 11 H 76.072300 56.214400 43.929100 0
M  V30 12 H 74.742500 55.258100 44.618600 0
M  V30 13 H 76.211700 54.492800 44.124700 0
M  V30 14 H 75.293100 57.056500 41.712300 0
M  V30 15 H 74.392000 55.795900 39.767400 0
M  V30 16 H 72.868500 55.583900 40.605100 0
M  V30 17 H 73.981800 58.058100 39.445900 0
M  V30 18 H 72.474500 57.257800 39.150200 0
M  V30 19 H 74.069000 58.858200 42.044300 0
M  V30 20 H 72.471900 59.075200 42.832000 0
M  V30 21 H 72.516500 56.538100 42.979100 0
M  V30 22 H 73.872300 57.342600 43.724700 0
M  V30 23 R 73.591600 53.040500 42.136600 0
M  V30 END ATOM
M  V30 BEGIN BOND
M  V30 1 1 2 1
M  V30 2 1 3 2
M  V30 3 1 4 2
M  V30 4 1 5 4
M  V30 5 1 6 5
M  V30 6 1 7 6
M  V30 7 1 8 7
M  V30 8 1 9 4
M  V30 9 1 9 8
M  V30 10 1 2 10 CFG=3
M  V30 11 1 11 3
M  V30 12 1 12 3
M  V30 13 1 13 3
M  V30 14 1 14 4
M  V30 15 1 15 5
M  V30 16 1 16 5
M  V30 17 1 17 6
M  V30 18 1 18 6
M  V30 19 1 19 8
M  V30 20 1 20 8
M  V30 21 1 21 9
M  V30 22 1 22 9
M  V30 23 1 23 1
M  V30 END BOND
M  V30 END CTAB
M  END
$$$$
R-group 445 (21638-2)
     RDKit          3D

  0  0  0  0  0  0  0  0  0  0999 V3000
M  V30 BEGIN CTAB
M  V30 COUNTS 16 16 0 0 1
M  V30 BEGIN ATOM
M  V30 1 N 73.272200 54.216500 42.124700 0
M  V30 2 C 74.241100 55.002900 41.671400 0
M  V30 3 O 75.272000 54.660800 41.140300 0
M  V30 4 C 73.846500 56.382400 41.639900 0
M  V30 5 N 73.671200 57.162100 42.679300 0
M  V30 6 N 73.028500 58.180900 42.124700 0
M  V30 7 C 72.872200 58.058000 40.785200 0
M  V30 8 C 73.403200 56.883300 40.394800 0
M  V30 9 C 73.453600 56.267100 39.030500 0
M  V30 10 H 72.471700 58.878300 40.222300 0
M  V30 11 H 72.882200 56.859500 38.328200 0
M  V30 12 H 74.472900 56.194700 38.648400 0
M  V30 13 H 73.027100 55.264200 39.016700 0
M  V30 14 H 72.494700 54.655300 42.597700 0
M  V30 15 H 72.756200 58.989300 42.665700 0
M  V30 16 R 73.257300 52.790100 42.012200 0
M  V30 END ATOM
M  V30 BEGIN BOND
M  V30 1 1 2 1
M  V30 2 2 3 2
M  V30 3 1 4 2
M  V30 4 2 5 4
M  V30 5 1 6 5
M  V30 6 1 7 6
M  V30 7 1 8 4
M  V30 8 2 8 7
M  V30 9 1 9 8
M  V30 10 1 10 7
M  V30 11 1 11 9
M  V30 12 1 12 9
M  V30 13 1 13 9
M  V30 14 1 14 1
M  V30 15 1 15 6
M  V30 16 1 16 1
M  V30 END BOND
M  V30 END CTAB
M  END
$$$$
R-group 446 (29312-7)
     RDKit          3D

  0  0  0  0  0  0  0  0  0  0999 V3000
M  V30 BEGIN CTAB
M  V30 COUNTS 22 22 0 0 1
M  V30 BEGIN ATOM
M  V30 1 C 73.763600 54.937700 41.641400 0 CFG=2
M  V30 2 C 75.188900 55.510800 41.491800 0
M  V30 3 C 75.118100 57.042200 41.381900 0 CFG=2
M  V30 4 C 76.516100 57.625600 41.153500 0
M  V30 5 C 74.397500 57.658100 42.612600 0
M  V30 6 C 73.075300 56.969200 42.887100 0 CFG=2
M  V30 7 O 72.472300 57.261500 44.124700 0
M  V30 8 C 73.198700 55.483800 42.924500 0
M  V30 9 H 73.159400 55.335200 40.823800 0
M  V30 10 H 75.798000 55.248100 42.354200 0
M  V30 11 H 75.706500 55.114300 40.624200 0
M  V30 12 H 74.521600 57.260100 40.494600 0
M  V30 13 H 77.146600 57.501100 42.033100 0
M  V30 14 H 77.010700 57.147400 40.308800 0
M  V30 15 H 76.472200 58.682600 40.924800 0
M  V30 16 H 75.049200 57.658500 43.486600 0
M  V30 17 H 74.072200 58.674900 42.393300 0
M  V30 18 H 72.472200 57.279900 42.048000 0
M  V30 19 H 72.205800 55.063200 43.095800 0
M  V30 20 H 73.887400 55.240500 43.724800 0
M  V30 21 H 71.868300 56.564800 44.341500 0
M  V30 22 R 73.585500 53.407100 41.656200 0
M  V30 END ATOM
M  V30 BEGIN BOND
M  V30 1 1 2 1
M  V30 2 1 3 2
M  V30 3 1 4 3
M  V30 4 1 5 3
M  V30 5 1 6 5
M  V30 6 1 7 6
M  V30 7 1 8 1
M  V30 8 1 8 6
M  V30 9 1 1 9 CFG=3
M  V30 10 1 10 2
M  V30 11 1 11 2
M  V30 12 1 3 12 CFG=3
M  V30 13 1 13 4
M  V30 14 1 14 4
M  V30 15 1 15 4
M  V30 16 1 16 5
M  V30 17 1 17 5
M  V30 18 1 6 18 CFG=3
M  V30 19 1 19 8
M  V30 20 1 20 8
M  V30 21 1 21 7
M  V30 22 1 22 1
M  V30 END BOND
M  V30 END CTAB
M  END
$$$$
R-group 447 (23405-1)
     RDKit          3D

  0  0  0  0  0  0  0  0  0  0999 V3000
M  V30 BEGIN CTAB
M  V30 COUNTS 19 18 0 0 1
M  V30 BEGIN ATOM
M  V30 1 S 74.222700 55.712700 42.071400 0
M  V30 2 O 73.273400 56.331300 42.991800 0
M  V30 3 O 75.649300 55.780000 42.430500 0
M  V30 4 N 74.078100 56.546000 40.552600 0
M  V30 5 C 75.258600 56.674400 39.724800 0
M  V30 6 C 72.934100 57.387900 40.128900 0
M  V30 7 C 72.544100 58.447600 41.172900 0
M  V30 8 C 71.796800 56.554200 39.497400 0
M  V30 9 H 75.669200 57.664400 39.797100 0
M  V30 10 H 76.074400 56.056100 40.059400 0
M  V30 11 H 74.971000 56.457700 38.684900 0
M  V30 12 H 73.291000 57.991200 39.290900 0
M  V30 13 H 71.885600 59.214300 40.762000 0
M  V30 14 H 72.083000 58.064600 42.060400 0
M  V30 15 H 73.416200 58.919900 41.605800 0
M  V30 16 H 70.995900 57.170100 39.110700 0
M  V30 17 H 72.196000 55.971400 38.682200 0
M  V30 18 H 71.324900 55.806700 40.124600 0
M  V30 19 R 73.697500 53.919000 41.785600 0
M  V30 END ATOM
M  V30 BEGIN BOND
M  V30 1 2 2 1
M  V30 2 2 3 1
M  V30 3 1 4 1
M  V30 4 1 5 4
M  V30 5 1 6 4
M  V30 6 1 7 6
M  V30 7 1 8 6
M  V30 8 1 9 5
M  V30 9 1 10 5
M  V30 10 1 11 5
M  V30 11 1 12 6
M  V30 12 1 13 7
M  V30 13 1 14 7
M  V30 14 1 15 7
M  V30 15 1 16 8
M  V30 16 1 17 8
M  V30 17 1 18 8
M  V30 18 1 19 1
M  V30 END BOND
M  V30 END CTAB
M  END
$$$$
R-group 448 (27105-1)
     RDKit          3D

  0  0  0  0  0  0  0  0  0  0999 V3000
M  V30 BEGIN CTAB
M  V30 COUNTS 20 20 0 0 1
M  V30 BEGIN ATOM
M  V30 1 C 76.476000 57.402800 40.922200 0
M  V30 2 O 75.107900 57.066000 40.862000 0
M  V30 3 C 74.252700 57.832100 41.723600 0 CFG=1
M  V30 4 C 72.872300 57.266600 41.690800 0
M  V30 5 C 73.272500 56.464700 42.934800 0 CFG=1
M  V30 6 C 73.907700 55.148500 42.524700 0
M  V30 7 O 75.123900 55.000800 42.581800 0
M  V30 8 N 73.045500 54.208200 42.124900 0
M  V30 9 C 74.304100 57.563300 43.213400 0
M  V30 10 H 77.007900 56.858600 40.139600 0
M  V30 11 H 76.618200 58.458300 40.733600 0
M  V30 12 H 76.908800 57.154500 41.893400 0
M  V30 13 H 74.071800 58.857900 41.603400 0
M  V30 14 H 72.673200 56.722900 40.764200 0
M  V30 15 H 72.130600 58.057500 41.870700 0
M  V30 16 H 72.491100 56.369100 43.693300 0
M  V30 17 H 73.908500 58.441700 43.724600 0
M  V30 18 H 75.284600 57.269700 43.589300 0
M  V30 19 H 72.060200 54.423400 42.190800 0
M  V30 20 R 73.398100 52.926000 41.595200 0
M  V30 END ATOM
M  V30 BEGIN BOND
M  V30 1 1 2 1
M  V30 2 1 3 2
M  V30 3 1 4 3
M  V30 4 1 5 4
M  V30 5 1 6 5
M  V30 6 2 7 6
M  V30 7 1 8 6
M  V30 8 1 9 3
M  V30 9 1 9 5
M  V30 10 1 10 1
M  V30 11 1 11 1
M  V30 12 1 12 1
M  V30 13 1 3 13 CFG=1
M  V30 14 1 14 4
M  V30 15 1 15 4
M  V30 16 1 5 16 CFG=1
M  V30 17 1 17 9
M  V30 18 1 18 9
M  V30 19 1 19 8
M  V30 20 1 20 8
M  V30 END BOND
M  V30 END CTAB
M  END
$$$$
R-group 449 (7060-2)
     RDKit          3D

  0  0  0  0  0  0  0  0  0  0999 V3000
M  V30 BEGIN CTAB
M  V30 COUNTS 16 16 0 0 1
M  V30 BEGIN ATOM
M  V30 1 C 76.580400 58.057600 40.263400 0
M  V30 2 N 76.073100 56.859000 40.923800 0
M  V30 3 C 74.834100 56.593700 41.323400 0
M  V30 4 O 73.836600 57.258000 41.043300 0
M  V30 5 C 74.815400 55.412200 42.196200 0 CFG=1
M  V30 6 C 74.072200 55.523300 43.496300 0
M  V30 7 C 73.508200 54.704100 42.354200 0 CFG=2
M  V30 8 H 77.644800 57.951600 40.055700 0
M  V30 9 H 76.072800 58.421300 39.374400 0
M  V30 10 H 76.470800 58.856200 40.952500 0
M  V30 11 H 75.704700 54.798700 42.203300 0
M  V30 12 H 73.543600 56.447800 43.722300 0
M  V30 13 H 74.518600 55.037200 44.358300 0
M  V30 14 H 72.680400 55.153500 41.852400 0
M  V30 15 H 76.780900 56.197800 41.205800 0
M  V30 16 R 73.448700 53.206900 42.171800 0
M  V30 END ATOM
M  V30 BEGIN BOND
M  V30 1 1 2 1
M  V30 2 1 3 2
M  V30 3 2 4 3
M  V30 4 1 5 3
M  V30 5 1 6 5
M  V30 6 1 7 5
M  V30 7 1 7 6
M  V30 8 1 8 1
M  V30 9 1 9 1
M  V30 10 1 10 1
M  V30 11 1 5 11 CFG=1
M  V30 12 1 12 6
M  V30 13 1 13 6
M  V30 14 1 7 14 CFG=3
M  V30 15 1 15 2
M  V30 16 1 16 7
M  V30 END BOND
M  V30 END CTAB
M  END
$$$$
R-group 450 (7192-2)
     RDKit          3D

  0  0  0  0  0  0  0  0  0  0999 V3000
M  V30 BEGIN CTAB
M  V30 COUNTS 23 23 0 0 1
M  V30 BEGIN ATOM
M  V30 1 C 72.974000 56.932500 39.590800 0
M  V30 2 C 73.271300 57.646500 40.913000 0
M  V30 3 O 72.475000 58.468600 41.333800 0
M  V30 4 N 74.304400 57.253800 41.643800 0
M  V30 5 C 74.393600 57.408700 43.085900 0
M  V30 6 C 75.695300 56.735100 43.471300 0
M  V30 7 C 76.473500 56.783600 42.178100 0
M  V30 8 C 75.446300 56.559000 41.109600 0 CFG=1
M  V30 9 C 75.076000 55.088800 40.917000 0
M  V30 10 O 73.987400 54.759600 41.783300 0
M  V30 11 H 72.890800 55.864100 39.740400 0
M  V30 12 H 72.003000 57.179200 39.185600 0
M  V30 13 H 73.739800 57.145800 38.850800 0
M  V30 14 H 73.527400 56.987800 43.597100 0
M  V30 15 H 74.474300 58.452000 43.325700 0
M  V30 16 H 75.531700 55.702100 43.776400 0
M  V30 17 H 76.220400 57.252400 44.268000 0
M  V30 18 H 77.268000 56.060300 42.124800 0
M  V30 19 H 76.913200 57.772700 42.058000 0
M  V30 20 H 75.799100 56.991000 40.171600 0
M  V30 21 H 75.921500 54.445000 41.080600 0
M  V30 22 H 74.798700 54.981600 39.875600 0
M  V30 23 R 73.612900 53.408900 41.895500 0
M  V30 END ATOM
M  V30 BEGIN BOND
M  V30 1 1 2 1
M  V30 2 2 3 2
M  V30 3 1 4 2
M  V30 4 1 5 4
M  V30 5 1 6 5
M  V30 6 1 7 6
M  V30 7 1 8 4
M  V30 8 1 8 7
M  V30 9 1 9 8
M  V30 10 1 10 9
M  V30 11 1 11 1
M  V30 12 1 12 1
M  V30 13 1 13 1
M  V30 14 1 14 5
M  V30 15 1 15 5
M  V30 16 1 16 6
M  V30 17 1 17 6
M  V30 18 1 18 7
M  V30 19 1 19 7
M  V30 20 1 8 20 CFG=3
M  V30 21 1 21 9
M  V30 22 1 22 9
M  V30 23 1 23 10
M  V30 END BOND
M  V30 END CTAB
M  END
$$$$
R-group 451 (11270-4)
     RDKit          3D

  0  0  0  0  0  0  0  0  0  0999 V3000
M  V30 BEGIN CTAB
M  V30 COUNTS 19 19 0 0 1
M  V30 BEGIN ATOM
M  V30 1 C 74.062100 54.551100 42.426000 0 CFG=2
M  V30 2 C 72.872700 55.405500 42.225500 0
M  V30 3 C 73.283500 56.869500 42.369100 0
M  V30 4 C 74.439700 57.151700 41.411300 0 CFG=2
M  V30 5 C 74.024900 57.258000 39.929500 0
M  V30 6 O 75.541400 56.307400 41.662000 0
M  V30 7 C 75.209600 54.959100 41.492600 0
M  V30 8 H 74.394000 54.758400 43.444500 0
M  V30 9 H 72.528800 55.223800 41.202600 0
M  V30 10 H 72.078100 55.136200 42.924800 0
M  V30 11 H 72.472300 57.564700 42.165600 0
M  V30 12 H 73.599000 57.062600 43.393800 0
M  V30 13 H 74.871200 58.058000 41.724600 0
M  V30 14 H 73.272500 58.035800 39.796700 0
M  V30 15 H 74.872500 57.522800 39.304300 0
M  V30 16 H 73.604100 56.334900 39.534300 0
M  V30 17 H 76.072000 54.362000 41.724700 0
M  V30 18 H 74.984500 54.829800 40.445500 0
M  V30 19 R 73.644900 53.093100 42.291200 0
M  V30 END ATOM
M  V30 BEGIN BOND
M  V30 1 1 2 1
M  V30 2 1 3 2
M  V30 3 1 4 3
M  V30 4 1 5 4
M  V30 5 1 6 4
M  V30 6 1 7 1
M  V30 7 1 7 6
M  V30 8 1 1 8 CFG=1
M  V30 9 1 9 2
M  V30 10 1 10 2
M  V30 11 1 11 3
M  V30 12 1 12 3
M  V30 13 1 4 13 CFG=1
M  V30 14 1 14 5
M  V30 15 1 15 5
M  V30 16 1 16 5
M  V30 17 1 17 7
M  V30 18 1 18 7
M  V30 19 1 19 1
M  V30 END BOND
M  V30 END CTAB
M  END
$$$$
R-group 452 (29314-4)
     RDKit          3D

  0  0  0  0  0  0  0  0  0  0999 V3000
M  V30 BEGIN CTAB
M  V30 COUNTS 20 20 0 0 1
M  V30 BEGIN ATOM
M  V30 1 C 74.110400 54.718800 41.909400 0
M  V30 2 C 73.272300 55.520500 42.524700 0
M  V30 3 C 73.294600 57.007000 42.498600 0 CFG=1
M  V30 4 O 72.872300 57.530300 43.724100 0
M  V30 5 C 74.659700 57.504700 42.141900 0
M  V30 6 C 75.340100 56.740200 41.023200 0 CFG=1
M  V30 7 C 76.712700 57.356800 40.793200 0
M  V30 8 C 75.421100 55.259700 41.381200 0
M  V30 9 H 72.360200 55.105000 42.924500 0
M  V30 10 H 72.596300 57.343800 41.732500 0
M  V30 11 H 74.470800 58.458100 41.724900 0
M  V30 12 H 75.297900 57.588900 43.024900 0
M  V30 13 H 74.752600 56.837400 40.108500 0
M  V30 14 H 77.273300 57.437200 41.723000 0
M  V30 15 H 77.271900 56.725800 40.126700 0
M  V30 16 H 76.643900 58.348200 40.348100 0
M  V30 17 H 76.072000 55.174000 42.234500 0
M  V30 18 H 75.846000 54.702100 40.558300 0
M  V30 19 H 72.966300 56.850000 44.377300 0
M  V30 20 R 73.739100 53.264700 41.857400 0
M  V30 END ATOM
M  V30 BEGIN BOND
M  V30 1 2 2 1
M  V30 2 1 3 2
M  V30 3 1 4 3
M  V30 4 1 5 3
M  V30 5 1 6 5
M  V30 6 1 7 6
M  V30 7 1 8 1
M  V30 8 1 8 6
M  V30 9 1 9 2
M  V30 10 1 3 10 CFG=3
M  V30 11 1 11 5
M  V30 12 1 12 5
M  V30 13 1 6 13 CFG=3
M  V30 14 1 14 7
M  V30 15 1 15 7
M  V30 16 1 16 7
M  V30 17 1 17 8
M  V30 18 1 18 8
M  V30 19 1 19 4
M  V30 20 1 20 1
M  V30 END BOND
M  V30 END CTAB
M  END
$$$$
R-group 453 (6991-1)
     RDKit          3D

  0  0  0  0  0  0  0  0  0  0999 V3000
M  V30 BEGIN CTAB
M  V30 COUNTS 18 18 0 0 1
M  V30 BEGIN ATOM
M  V30 1 C 74.998700 55.247800 42.065600 0
M  V30 2 N 74.386900 56.426200 41.474000 0
M  V30 3 C 74.535500 56.762100 40.067700 0
M  V30 4 C 73.376500 57.728600 39.847100 0
M  V30 5 N 72.978100 58.058000 41.204400 0
M  V30 6 C 72.072900 59.167600 41.482300 0
M  V30 7 C 73.573000 57.270200 42.109200 0
M  V30 8 O 73.272300 57.263500 43.298100 0
M  V30 9 H 75.333900 55.501200 43.073600 0
M  V30 10 H 75.908800 55.031500 41.510200 0
M  V30 11 H 75.498000 57.252500 39.914600 0
M  V30 12 H 74.472500 55.907200 39.399100 0
M  V30 13 H 72.550300 57.234400 39.335100 0
M  V30 14 H 73.671500 58.602500 39.268400 0
M  V30 15 H 71.262300 58.858400 42.128800 0
M  V30 16 H 72.564900 59.973000 42.015300 0
M  V30 17 H 71.672400 59.579100 40.559200 0
M  V30 18 R 74.063700 54.002300 42.119200 0
M  V30 END ATOM
M  V30 BEGIN BOND
M  V30 1 1 2 1
M  V30 2 1 3 2
M  V30 3 1 4 3
M  V30 4 1 5 4
M  V30 5 1 6 5
M  V30 6 1 7 2
M  V30 7 1 7 5
M  V30 8 2 8 7
M  V30 9 1 9 1
M  V30 10 1 10 1
M  V30 11 1 11 3
M  V30 12 1 12 3
M  V30 13 1 13 4
M  V30 14 1 14 4
M  V30 15 1 15 6
M  V30 16 1 16 6
M  V30 17 1 17 6
M  V30 18 1 18 1
M  V30 END BOND
M  V30 END CTAB
M  END
$$$$
R-group 454 (27272-1)
     RDKit          3D

  0  0  0  0  0  0  0  0  0  0999 V3000
M  V30 BEGIN CTAB
M  V30 COUNTS 15 15 0 0 1
M  V30 BEGIN ATOM
M  V30 1 C 74.198600 55.149800 42.809000 0 CFG=1
M  V30 2 C 75.668400 55.398700 43.089100 0
M  V30 3 C 73.863500 56.213700 41.843100 0
M  V30 4 C 73.283800 57.422100 42.119400 0
M  V30 5 C 72.872300 58.058000 40.924600 0
M  V30 6 C 73.272200 57.365600 39.812100 0
M  V30 7 S 74.381100 56.149100 40.190000 0
M  V30 8 H 73.674900 55.411100 43.724700 0
M  V30 9 H 75.853600 56.426300 43.405400 0
M  V30 10 H 76.072100 54.758700 43.865700 0
M  V30 11 H 76.150100 55.258100 42.124800 0
M  V30 12 H 73.009400 57.782600 43.099700 0
M  V30 13 H 72.279300 58.960100 40.924300 0
M  V30 14 H 73.097200 57.619200 38.781600 0
M  V30 15 R 73.789100 53.653100 42.439400 0
M  V30 END ATOM
M  V30 BEGIN BOND
M  V30 1 1 2 1
M  V30 2 1 3 1
M  V30 3 2 4 3
M  V30 4 1 5 4
M  V30 5 2 6 5
M  V30 6 1 7 3
M  V30 7 1 7 6
M  V30 8 1 1 8 CFG=1
M  V30 9 1 9 2
M  V30 10 1 10 2
M  V30 11 1 11 2
M  V30 12 1 12 4
M  V30 13 1 13 5
M  V30 14 1 14 6
M  V30 15 1 15 1
M  V30 END BOND
M  V30 END CTAB
M  END
$$$$
R-group 455 (11005-1)
     RDKit          3D

  0  0  0  0  0  0  0  0  0  0999 V3000
M  V30 BEGIN CTAB
M  V30 COUNTS 14 14 0 0 1
M  V30 BEGIN ATOM
M  V30 1 C 74.252800 55.341700 42.821100 0 CFG=1
M  V30 2 C 75.699900 55.658000 43.194300 0
M  V30 3 C 73.815200 56.418400 41.924200 0
M  V30 4 C 73.272300 57.634000 42.206400 0
M  V30 5 C 72.872300 58.058000 40.924700 0
M  V30 6 N 73.283100 57.258000 39.959500 0
M  V30 7 O 74.014200 56.268400 40.597500 0
M  V30 8 H 73.693300 55.536500 43.724700 0
M  V30 9 H 75.775500 56.659900 43.619900 0
M  V30 10 H 76.072200 54.986800 43.960200 0
M  V30 11 H 76.339900 55.658000 42.311200 0
M  V30 12 H 73.069300 58.067500 43.173100 0
M  V30 13 H 72.308900 58.940000 40.660200 0
M  V30 14 R 73.862500 53.857300 42.416800 0
M  V30 END ATOM
M  V30 BEGIN BOND
M  V30 1 1 2 1
M  V30 2 1 3 1
M  V30 3 2 4 3
M  V30 4 1 5 4
M  V30 5 2 6 5
M  V30 6 1 7 3
M  V30 7 1 7 6
M  V30 8 1 1 8 CFG=1
M  V30 9 1 9 2
M  V30 10 1 10 2
M  V30 11 1 11 2
M  V30 12 1 12 4
M  V30 13 1 13 5
M  V30 14 1 14 1
M  V30 END BOND
M  V30 END CTAB
M  END
$$$$
R-group 456 (3489-1)
     RDKit          3D

  0  0  0  0  0  0  0  0  0  0999 V3000
M  V30 BEGIN CTAB
M  V30 COUNTS 21 20 0 0 1
M  V30 BEGIN ATOM
M  V30 1 C 76.071700 55.482600 44.164300 0
M  V30 2 C 75.929300 56.929400 43.697500 0
M  V30 3 C 74.542100 57.203300 43.139400 0
M  V30 4 C 74.597200 57.082000 41.633000 0
M  V30 5 C 73.286100 56.642400 40.992100 0
M  V30 6 C 72.872400 55.256800 41.504000 0
M  V30 7 O 73.966200 54.413800 41.571100 0
M  V30 8 H 77.084500 55.260100 44.507400 0
M  V30 9 H 75.406600 55.257000 44.998200 0
M  V30 10 H 75.776800 54.821300 43.356400 0
M  V30 11 H 76.677000 57.241100 42.966600 0
M  V30 12 H 76.072100 57.574800 44.528900 0
M  V30 13 H 74.223600 58.214300 43.380600 0
M  V30 14 H 73.801000 56.548700 43.598400 0
M  V30 15 H 75.379200 56.389400 41.317600 0
M  V30 16 H 74.920400 58.056700 41.324800 0
M  V30 17 H 73.425600 56.601700 39.911300 0
M  V30 18 H 72.510000 57.385300 41.169300 0
M  V30 19 H 72.089000 54.857700 40.857800 0
M  V30 20 H 72.479600 55.258600 42.532600 0
M  V30 21 R 73.563300 53.094800 41.811500 0
M  V30 END ATOM
M  V30 BEGIN BOND
M  V30 1 1 2 1
M  V30 2 1 3 2
M  V30 3 1 4 3
M  V30 4 1 5 4
M  V30 5 1 6 5
M  V30 6 1 7 6
M  V30 7 1 8 1
M  V30 8 1 9 1
M  V30 9 1 10 1
M  V30 10 1 11 2
M  V30 11 1 12 2
M  V30 12 1 13 3
M  V30 13 1 14 3
M  V30 14 1 15 4
M  V30 15 1 16 4
M  V30 16 1 17 5
M  V30 17 1 18 5
M  V30 18 1 19 6
M  V30 19 1 20 6
M  V30 20 1 21 7
M  V30 END BOND
M  V30 END CTAB
M  END
$$$$
R-group 457 (20312-1)
     RDKit          3D

  0  0  0  0  0  0  0  0  0  0999 V3000
M  V30 BEGIN CTAB
M  V30 COUNTS 25 25 0 0 1
M  V30 BEGIN ATOM
M  V30 1 C 73.445700 54.407500 41.556500 0
M  V30 2 C 72.651800 55.301600 40.531600 0
M  V30 3 C 71.138300 54.858100 40.378200 0
M  V30 4 O 70.769900 53.958300 39.347500 0
M  V30 5 C 72.873000 56.762800 41.163600 0
M  V30 6 C 74.285100 57.299300 41.197300 0
M  V30 7 C 74.746500 57.327600 39.764500 0
M  V30 8 C 74.598700 55.985300 39.155500 0
M  V30 9 C 73.203800 55.438000 39.127500 0
M  V30 10 H 73.123100 54.690400 42.564500 0
M  V30 11 H 74.500500 54.679300 41.554000 0
M  V30 12 H 70.783400 54.457400 41.322900 0
M  V30 13 H 70.522800 55.721400 40.111500 0
M  V30 14 H 72.252500 57.477700 40.617700 0
M  V30 15 H 72.594700 56.859900 42.217300 0
M  V30 16 H 74.254600 58.276900 41.665500 0
M  V30 17 H 74.950100 56.705300 41.815100 0
M  V30 18 H 74.130000 58.034000 39.205900 0
M  V30 19 H 75.780700 57.657900 39.724300 0
M  V30 20 H 74.861300 56.061400 38.124800 0
M  V30 21 H 75.271300 55.344600 39.725600 0
M  V30 22 H 73.177200 54.520400 38.550100 0
M  V30 23 H 72.602700 56.169100 38.600100 0
M  V30 24 H 71.095300 53.096600 39.558200 0
M  V30 25 R 73.433700 52.877500 41.566800 0
M  V30 END ATOM
M  V30 BEGIN BOND
M  V30 1 1 2 1
M  V30 2 1 3 2
M  V30 3 1 4 3
M  V30 4 1 5 2
M  V30 5 1 6 5
M  V30 6 1 7 6
M  V30 7 1 8 7
M  V30 8 1 9 2
M  V30 9 1 9 8
M  V30 10 1 10 1
M  V30 11 1 11 1
M  V30 12 1 12 3
M  V30 13 1 13 3
M  V30 14 1 14 5
M  V30 15 1 15 5
M  V30 16 1 16 6
M  V30 17 1 17 6
M  V30 18 1 18 7
M  V30 19 1 19 7
M  V30 20 1 20 8
M  V30 21 1 21 8
M  V30 22 1 22 9
M  V30 23 1 23 9
M  V30 24 1 24 4
M  V30 25 1 25 1
M  V30 END BOND
M  V30 END CTAB
M  END
$$$$
R-group 458 (37778-1)
     RDKit          3D

  0  0  0  0  0  0  0  0  0  0999 V3000
M  V30 BEGIN CTAB
M  V30 COUNTS 15 15 0 0 1
M  V30 BEGIN ATOM
M  V30 1 C 74.260500 55.363800 42.847000 0 CFG=1
M  V30 2 C 75.703300 55.691100 43.249500 0
M  V30 3 C 73.893200 56.357400 41.809500 0
M  V30 4 N 74.159500 56.262200 40.515700 0
M  V30 5 C 73.401300 57.258000 39.941400 0
M  V30 6 C 72.872200 58.058000 40.924700 0
M  V30 7 N 73.274200 57.501400 42.116400 0
M  V30 8 H 73.672300 55.637000 43.724600 0
M  V30 9 H 75.767200 56.713200 43.625700 0
M  V30 10 H 76.081800 55.060100 44.048600 0
M  V30 11 H 76.360200 55.658000 42.380000 0
M  V30 12 H 73.326000 57.347300 38.872700 0
M  V30 13 H 72.264000 58.948900 40.875300 0
M  V30 14 H 73.015100 57.807900 43.042700 0
M  V30 15 R 73.874100 53.853800 42.511100 0
M  V30 END ATOM
M  V30 BEGIN BOND
M  V30 1 1 2 1
M  V30 2 1 3 1
M  V30 3 2 4 3
M  V30 4 1 5 4
M  V30 5 2 6 5
M  V30 6 1 7 3
M  V30 7 1 7 6
M  V30 8 1 1 8 CFG=1
M  V30 9 1 9 2
M  V30 10 1 10 2
M  V30 11 1 11 2
M  V30 12 1 12 5
M  V30 13 1 13 6
M  V30 14 1 14 7
M  V30 15 1 15 1
M  V30 END BOND
M  V30 END CTAB
M  END
$$$$
R-group 459 (10936-3)
     RDKit          3D

  0  0  0  0  0  0  0  0  0  0999 V3000
M  V30 BEGIN CTAB
M  V30 COUNTS 19 19 0 0 1
M  V30 BEGIN ATOM
M  V30 1 C 74.306600 54.785100 42.437800 0 CFG=1
M  V30 2 C 75.609700 55.192600 41.781800 0
M  V30 3 C 73.238000 55.697900 42.032100 0 CFG=2
M  V30 4 C 72.871400 55.716100 40.525200 0
M  V30 5 C 72.857000 57.160000 40.136700 0
M  V30 6 O 73.668400 57.657700 41.163200 0
M  V30 7 C 73.392500 57.144100 42.431400 0
M  V30 8 H 74.463400 54.946300 43.504700 0
M  V30 9 H 75.538800 55.640300 40.789800 0
M  V30 10 H 76.201100 55.863100 42.407100 0
M  V30 11 H 76.069400 54.246800 41.678600 0
M  V30 12 H 72.469100 55.288800 42.662100 0
M  V30 13 H 73.609200 55.231600 39.890600 0
M  V30 14 H 71.909100 55.259400 40.297400 0
M  V30 15 H 73.311200 57.333100 39.162200 0
M  V30 16 H 71.860300 57.590700 40.126300 0
M  V30 17 H 72.483100 57.585700 42.820500 0
M  V30 18 H 74.207100 57.337900 43.130100 0
M  V30 19 R 73.816600 53.312200 42.281400 0
M  V30 END ATOM
M  V30 BEGIN BOND
M  V30 1 1 2 1
M  V30 2 1 3 1
M  V30 3 1 4 3
M  V30 4 1 5 4
M  V30 5 1 6 5
M  V30 6 1 7 3
M  V30 7 1 7 6
M  V30 8 1 1 8 CFG=1
M  V30 9 1 9 2
M  V30 10 1 10 2
M  V30 11 1 11 2
M  V30 12 1 3 12 CFG=1
M  V30 13 1 13 4
M  V30 14 1 14 4
M  V30 15 1 15 5
M  V30 16 1 16 5
M  V30 17 1 17 7
M  V30 18 1 18 7
M  V30 19 1 19 1
M  V30 END BOND
M  V30 END CTAB
M  END
$$$$
R-group 460 (10466-1)
     RDKit          3D

  0  0  0  0  0  0  0  0  0  0999 V3000
M  V30 BEGIN CTAB
M  V30 COUNTS 19 18 0 0 1
M  V30 BEGIN ATOM
M  V30 1 C 72.683400 57.842100 43.481700 0
M  V30 2 C 73.677900 57.264100 42.519300 0
M  V30 3 O 74.762300 56.847000 42.921100 0
M  V30 4 N 73.290200 57.258000 41.233500 0
M  V30 5 C 73.942900 56.452900 40.217800 0 CFG=2
M  V30 6 C 73.116900 56.423000 38.929400 0
M  V30 7 C 74.203200 55.034700 40.727400 0
M  V30 8 O 75.272500 54.519200 40.514500 0
M  V30 9 N 73.272500 54.429000 41.469800 0
M  V30 10 H 72.195500 57.069700 44.085100 0
M  V30 11 H 73.222700 58.460700 44.150000 0
M  V30 12 H 71.965300 58.463600 42.943700 0
M  V30 13 H 74.905200 56.925300 39.997500 0
M  V30 14 H 73.676700 55.927100 38.135600 0
M  V30 15 H 72.179700 55.886400 39.067100 0
M  V30 16 H 72.872300 57.417000 38.576900 0
M  V30 17 H 72.405600 57.680900 40.992100 0
M  V30 18 H 72.472800 54.966000 41.740100 0
M  V30 19 R 73.273400 53.025200 41.828400 0
M  V30 END ATOM
M  V30 BEGIN BOND
M  V30 1 1 2 1
M  V30 2 2 3 2
M  V30 3 1 4 2
M  V30 4 1 5 4
M  V30 5 1 6 5
M  V30 6 1 7 5
M  V30 7 2 8 7
M  V30 8 1 9 7
M  V30 9 1 10 1
M  V30 10 1 11 1
M  V30 11 1 12 1
M  V30 12 1 5 13 CFG=3
M  V30 13 1 14 6
M  V30 14 1 15 6
M  V30 15 1 16 6
M  V30 16 1 17 4
M  V30 17 1 18 9
M  V30 18 1 19 9
M  V30 END BOND
M  V30 END CTAB
M  END
$$$$
R-group 461 (2483-1)
     RDKit          3D

  0  0  0  0  0  0  0  0  0  0999 V3000
M  V30 BEGIN CTAB
M  V30 COUNTS 18 18 0 0 1
M  V30 BEGIN ATOM
M  V30 1 C 73.690100 54.677800 42.100900 0
M  V30 2 N 74.922900 54.980800 41.395000 0
M  V30 3 C 74.719800 55.587500 40.095900 0
M  V30 4 C 74.545100 57.067800 40.275800 0
M  V30 5 C 75.146100 57.255500 41.650900 0 CFG=1
M  V30 6 C 74.067500 57.498300 42.581300 0
M  V30 7 N 73.212100 57.658000 43.320500 0
M  V30 8 C 75.769100 55.946600 42.061500 0
M  V30 9 H 73.763100 54.987700 43.144200 0
M  V30 10 H 72.871300 55.223700 41.643400 0
M  V30 11 H 73.968500 55.143100 39.448700 0
M  V30 12 H 75.712700 55.437100 39.724700 0
M  V30 13 H 73.490700 57.346900 40.247200 0
M  V30 14 H 75.070000 57.638100 39.504600 0
M  V30 15 H 75.916700 58.024300 41.639200 0
M  V30 16 H 76.775200 55.901700 41.651100 0
M  V30 17 H 75.848100 55.793400 43.141500 0
M  V30 18 R 73.480400 53.167600 42.058900 0
M  V30 END ATOM
M  V30 BEGIN BOND
M  V30 1 1 2 1
M  V30 2 1 3 2
M  V30 3 1 4 3
M  V30 4 1 5 4
M  V30 5 1 6 5
M  V30 6 3 7 6
M  V30 7 1 8 2
M  V30 8 1 8 5
M  V30 9 1 9 1
M  V30 10 1 10 1
M  V30 11 1 11 3
M  V30 12 1 12 3
M  V30 13 1 13 4
M  V30 14 1 14 4
M  V30 15 1 5 15 CFG=3
M  V30 16 1 16 8
M  V30 17 1 17 8
M  V30 18 1 18 1
M  V30 END BOND
M  V30 END CTAB
M  END
$$$$
R-group 462 (18150-1)
     RDKit          3D

  0  0  0  0  0  0  0  0  0  0999 V3000
M  V30 BEGIN CTAB
M  V30 COUNTS 14 14 0 0 1
M  V30 BEGIN ATOM
M  V30 1 C 74.261500 55.124600 43.078400 0
M  V30 2 O 73.277300 56.142900 42.919700 0
M  V30 3 C 73.828200 57.299600 42.313000 0
M  V30 4 C 73.953500 57.142900 40.797800 0
M  V30 5 O 72.872300 58.057900 40.564200 0
M  V30 6 C 72.850700 58.420000 41.965900 0
M  V30 7 H 74.472200 55.101900 44.146900 0
M  V30 8 H 75.217500 55.395600 42.623600 0
M  V30 9 H 74.733800 57.657600 42.803000 0
M  V30 10 H 74.910200 57.468000 40.390600 0
M  V30 11 H 73.676400 56.188400 40.384000 0
M  V30 12 H 71.860800 58.458000 42.413000 0
M  V30 13 H 73.272000 59.393100 42.124600 0
M  V30 14 R 73.841900 53.728900 42.523200 0
M  V30 END ATOM
M  V30 BEGIN BOND
M  V30 1 1 2 1
M  V30 2 1 3 2
M  V30 3 1 4 3
M  V30 4 1 5 4
M  V30 5 1 6 3
M  V30 6 1 6 5
M  V30 7 1 7 1
M  V30 8 1 8 1
M  V30 9 1 9 3
M  V30 10 1 10 4
M  V30 11 1 11 4
M  V30 12 1 12 6
M  V30 13 1 13 6
M  V30 14 1 14 1
M  V30 END BOND
M  V30 END CTAB
M  END
$$$$
R-group 463 (37655-1)
     RDKit          3D

  0  0  0  0  0  0  0  0  0  0999 V3000
M  V30 BEGIN CTAB
M  V30 COUNTS 14 13 0 0 1
M  V30 BEGIN ATOM
M  V30 1 S 74.956400 55.517100 42.446000 0
M  V30 2 O 75.672200 55.657900 43.724000 0
M  V30 3 O 75.672200 55.766700 41.189300 0
M  V30 4 C 73.547700 56.625100 42.473200 0
M  V30 5 C 73.721400 57.849400 41.580100 0
M  V30 6 C 73.136200 57.658900 40.169700 0
M  V30 7 F 73.696800 56.638200 39.524700 0
M  V30 8 H 72.872300 55.955800 42.012300 0
M  V30 9 H 73.253700 56.830900 43.502200 0
M  V30 10 H 73.258400 58.717800 42.048900 0
M  V30 11 H 74.783900 58.052500 41.508100 0
M  V30 12 H 72.072300 57.448700 40.207900 0
M  V30 13 H 73.272300 58.547400 39.555300 0
M  V30 14 R 74.091700 53.849700 42.363200 0
M  V30 END ATOM
M  V30 BEGIN BOND
M  V30 1 2 2 1
M  V30 2 2 3 1
M  V30 3 1 4 1
M  V30 4 1 5 4
M  V30 5 1 6 5
M  V30 6 1 7 6
M  V30 7 1 8 4
M  V30 8 1 9 4
M  V30 9 1 10 5
M  V30 10 1 11 5
M  V30 11 1 12 6
M  V30 12 1 13 6
M  V30 13 1 14 1
M  V30 END BOND
M  V30 END CTAB
M  END
$$$$
R-group 464 (17369-1)
     RDKit          3D

  0  0  0  0  0  0  0  0  0  0999 V3000
M  V30 BEGIN CTAB
M  V30 COUNTS 20 20 0 0 1
M  V30 BEGIN ATOM
M  V30 1 O 73.507700 55.013800 42.087800 0
M  V30 2 C 73.022900 55.780300 43.186800 0
M  V30 3 C 72.896400 57.279200 42.957100 0
M  V30 4 C 74.175000 58.038600 42.785000 0
M  V30 5 C 75.238200 57.215500 42.111400 0
M  V30 6 F 75.648500 56.210200 42.877800 0
M  V30 7 C 75.039700 56.811000 40.669500 0
M  V30 8 O 76.455200 56.854300 40.524800 0
M  V30 9 C 76.531100 57.796300 41.564100 0
M  V30 10 H 71.979700 55.453900 43.320400 0
M  V30 11 H 73.672200 55.658600 44.064600 0
M  V30 12 H 72.474200 57.419000 41.974900 0
M  V30 13 H 72.327800 57.766700 43.750000 0
M  V30 14 H 73.921600 58.856600 42.130700 0
M  V30 15 H 74.589200 58.412300 43.727000 0
M  V30 16 H 74.684500 55.827900 40.430700 0
M  V30 17 H 74.502600 57.505000 40.007400 0
M  V30 18 H 76.489600 58.783800 41.165900 0
M  V30 19 H 77.445600 57.659200 42.142600 0
M  V30 20 R 73.335500 53.614200 42.085500 0
M  V30 END ATOM
M  V30 BEGIN BOND
M  V30 1 1 2 1
M  V30 2 1 3 2
M  V30 3 1 4 3
M  V30 4 1 5 4
M  V30 5 1 6 5
M  V30 6 1 7 5
M  V30 7 1 8 7
M  V30 8 1 9 5
M  V30 9 1 9 8
M  V30 10 1 10 2
M  V30 11 1 11 2
M  V30 12 1 12 3
M  V30 13 1 13 3
M  V30 14 1 14 4
M  V30 15 1 15 4
M  V30 16 1 16 7
M  V30 17 1 17 7
M  V30 18 1 18 9
M  V30 19 1 19 9
M  V30 20 1 20 1
M  V30 END BOND
M  V30 END CTAB
M  END
$$$$
R-group 465 (1227-1)
     RDKit          3D

  0  0  0  0  0  0  0  0  0  0999 V3000
M  V30 BEGIN CTAB
M  V30 COUNTS 17 17 0 0 1
M  V30 BEGIN ATOM
M  V30 1 S 74.301900 55.801900 42.524200 0
M  V30 2 O 73.271900 56.458400 43.324400 0
M  V30 3 O 75.672200 55.925300 43.000100 0
M  V30 4 N 74.238900 56.605500 41.018900 0
M  V30 5 C 75.254500 56.523000 39.976700 0
M  V30 6 C 74.406900 56.496100 38.696700 0
M  V30 7 C 73.272200 57.431200 39.072300 0
M  V30 8 C 72.991800 57.147800 40.514200 0
M  V30 9 H 75.865900 57.424600 40.026700 0
M  V30 10 H 75.926800 55.682000 40.124800 0
M  V30 11 H 74.872200 56.858000 37.779300 0
M  V30 12 H 74.021000 55.493900 38.510400 0
M  V30 13 H 72.357600 57.256100 38.524700 0
M  V30 14 H 73.589700 58.466300 38.926100 0
M  V30 15 H 72.219100 56.395200 40.522600 0
M  V30 16 H 72.668600 58.022500 41.080100 0
M  V30 17 R 73.819300 53.980700 42.277400 0
M  V30 END ATOM
M  V30 BEGIN BOND
M  V30 1 2 2 1
M  V30 2 2 3 1
M  V30 3 1 4 1
M  V30 4 1 5 4
M  V30 5 1 6 5
M  V30 6 1 7 6
M  V30 7 1 8 4
M  V30 8 1 8 7
M  V30 9 1 9 5
M  V30 10 1 10 5
M  V30 11 1 11 6
M  V30 12 1 12 6
M  V30 13 1 13 7
M  V30 14 1 14 7
M  V30 15 1 15 8
M  V30 16 1 16 8
M  V30 17 1 17 1
M  V30 END BOND
M  V30 END CTAB
M  END
$$$$
R-group 466 (10458-1)
     RDKit          3D

  0  0  0  0  0  0  0  0  0  0999 V3000
M  V30 BEGIN CTAB
M  V30 COUNTS 13 13 0 0 1
M  V30 BEGIN ATOM
M  V30 1 O 73.470100 54.505700 42.524700 0
M  V30 2 C 74.548600 55.415000 42.529000 0
M  V30 3 C 73.950300 56.636700 41.976100 0
M  V30 4 C 73.278200 57.657800 42.698400 0
M  V30 5 C 72.755200 58.457900 41.749300 0
M  V30 6 O 72.873500 57.930100 40.525300 0
M  V30 7 C 73.683200 56.862800 40.656800 0
M  V30 8 H 74.883400 55.583600 43.552500 0
M  V30 9 H 75.410900 55.105100 41.936300 0
M  V30 10 H 73.204300 57.786600 43.765800 0
M  V30 11 H 72.157300 59.357600 41.789500 0
M  V30 12 H 73.899300 56.341800 39.736300 0
M  V30 13 R 73.634700 53.268800 41.901200 0
M  V30 END ATOM
M  V30 BEGIN BOND
M  V30 1 1 2 1
M  V30 2 1 3 2
M  V30 3 1 4 3
M  V30 4 2 5 4
M  V30 5 1 6 5
M  V30 6 2 7 3
M  V30 7 1 7 6
M  V30 8 1 8 2
M  V30 9 1 9 2
M  V30 10 1 10 4
M  V30 11 1 11 5
M  V30 12 1 12 7
M  V30 13 1 13 1
M  V30 END BOND
M  V30 END CTAB
M  END
$$$$
R-group 467 (8543-2)
     RDKit          3D

  0  0  0  0  0  0  0  0  0  0999 V3000
M  V30 BEGIN CTAB
M  V30 COUNTS 21 20 0 0 1
M  V30 BEGIN ATOM
M  V30 1 C 72.874400 57.975000 42.561800 0
M  V30 2 C 72.872600 56.740800 43.478900 0
M  V30 3 C 74.073100 55.859800 43.243300 0
M  V30 4 C 74.025200 55.117600 41.876200 0 CFG=1
M  V30 5 C 75.355900 55.237100 41.118000 0
M  V30 6 C 75.897700 56.603800 40.716300 0
M  V30 7 O 76.471800 57.257900 41.789300 0
M  V30 8 H 72.129200 58.705000 42.873500 0
M  V30 9 H 73.848500 58.457900 42.577700 0
M  V30 10 H 72.665000 57.717900 41.524700 0
M  V30 11 H 72.038000 56.058200 43.348400 0
M  V30 12 H 72.837200 57.051800 44.523400 0
M  V30 13 H 74.076200 55.203300 44.104500 0
M  V30 14 H 74.974100 56.444100 43.363500 0
M  V30 15 H 73.279900 55.597000 41.244000 0
M  V30 16 H 76.072300 54.740600 41.733800 0
M  V30 17 H 75.326800 54.684700 40.195400 0
M  V30 18 H 76.783800 56.436200 40.126100 0
M  V30 19 H 75.184200 57.235000 40.178800 0
M  V30 20 H 76.919400 58.031500 41.477800 0
M  V30 21 R 73.600000 53.623700 42.035200 0
M  V30 END ATOM
M  V30 BEGIN BOND
M  V30 1 1 2 1
M  V30 2 1 3 2
M  V30 3 1 4 3
M  V30 4 1 5 4
M  V30 5 1 6 5
M  V30 6 1 7 6
M  V30 7 1 8 1
M  V30 8 1 9 1
M  V30 9 1 10 1
M  V30 10 1 11 2
M  V30 11 1 12 2
M  V30 12 1 13 3
M  V30 13 1 14 3
M  V30 14 1 4 15 CFG=3
M  V30 15 1 16 5
M  V30 16 1 17 5
M  V30 17 1 18 6
M  V30 18 1 19 6
M  V30 19 1 20 7
M  V30 20 1 21 4
M  V30 END BOND
M  V30 END CTAB
M  END
$$$$
R-group 468 (19169-3)
     RDKit          3D

  0  0  0  0  0  0  0  0  0  0999 V3000
M  V30 BEGIN CTAB
M  V30 COUNTS 23 24 0 0 1
M  V30 BEGIN ATOM
M  V30 1 C 73.899000 54.922200 42.011900 0 CFG=2
M  V30 2 C 73.309600 56.086200 41.203200 0 CFG=1
M  V30 3 C 72.888400 57.151900 42.251400 0
M  V30 4 C 74.201500 57.799400 42.642700 0
M  V30 5 C 75.260600 56.955400 41.915800 0 CFG=2
M  V30 6 C 74.536100 56.772300 40.593400 0
M  V30 7 C 75.260000 55.516000 42.494600 0 CFG=1
M  V30 8 C 75.347400 55.575300 44.020200 0
M  V30 9 O 75.883900 54.518900 44.733500 0
M  V30 10 H 73.223600 54.729100 42.843200 0
M  V30 11 H 72.556700 55.806300 40.443000 0
M  V30 12 H 72.257100 57.885500 41.744500 0
M  V30 13 H 72.463700 56.757100 43.171600 0
M  V30 14 H 74.409900 57.969900 43.703400 0
M  V30 15 H 74.072000 58.761500 42.176900 0
M  V30 16 H 76.260700 57.410800 41.863000 0
M  V30 17 H 74.165000 57.659100 40.125900 0
M  V30 18 H 75.133500 56.313200 39.811100 0
M  V30 19 H 76.071000 54.964600 42.070500 0
M  V30 20 H 75.987200 56.403400 44.318900 0
M  V30 21 H 74.312000 55.658000 44.365000 0
M  V30 22 H 75.286200 53.785400 44.619400 0
M  V30 23 R 73.970400 53.574300 41.283000 0
M  V30 END ATOM
M  V30 BEGIN BOND
M  V30 1 1 2 1
M  V30 2 1 3 2
M  V30 3 1 4 3
M  V30 4 1 5 4
M  V30 5 1 6 2
M  V30 6 1 6 5
M  V30 7 1 7 1
M  V30 8 1 7 5
M  V30 9 1 8 7
M  V30 10 1 9 8
M  V30 11 1 1 10 CFG=1
M  V30 12 1 2 11 CFG=3
M  V30 13 1 12 3
M  V30 14 1 13 3
M  V30 15 1 14 4
M  V30 16 1 15 4
M  V30 17 1 5 16 CFG=3
M  V30 18 1 17 6
M  V30 19 1 18 6
M  V30 20 1 7 19 CFG=3
M  V30 21 1 20 8
M  V30 22 1 21 8
M  V30 23 1 22 9
M  V30 24 1 23 1
M  V30 END BOND
M  V30 END CTAB
M  END
$$$$
R-group 469 (10974-2)
     RDKit          3D

  0  0  0  0  0  0  0  0  0  0999 V3000
M  V30 BEGIN CTAB
M  V30 COUNTS 20 20 0 0 1
M  V30 BEGIN ATOM
M  V30 1 C 73.139600 54.173700 42.457600 0 CFG=2
M  V30 2 C 71.674800 54.419600 42.807500 0
M  V30 3 C 73.672900 55.161000 41.466600 0
M  V30 4 N 73.006700 55.108300 40.303300 0
M  V30 5 C 73.437500 55.858000 39.324700 0
M  V30 6 C 74.472200 56.755000 39.458900 0
M  V30 7 C 75.162200 56.857800 40.668300 0
M  V30 8 C 74.766100 56.021400 41.711500 0
M  V30 9 C 75.498900 56.113100 43.031200 0
M  V30 10 H 73.680200 54.425200 43.324800 0
M  V30 11 H 71.672100 55.379200 43.332500 0
M  V30 12 H 71.091600 54.452600 41.882900 0
M  V30 13 H 71.271500 53.663000 43.481400 0
M  V30 14 H 73.035900 55.575600 38.379600 0
M  V30 15 H 74.809600 57.220700 38.562300 0
M  V30 16 H 76.004800 57.522100 40.765600 0
M  V30 17 H 76.383400 56.751200 42.965900 0
M  V30 18 H 74.803700 56.561900 43.722300 0
M  V30 19 H 75.793200 55.141900 43.420400 0
M  V30 20 R 73.423100 52.708200 42.102000 0
M  V30 END ATOM
M  V30 BEGIN BOND
M  V30 1 1 2 1
M  V30 2 1 3 1
M  V30 3 2 4 3
M  V30 4 1 5 4
M  V30 5 2 6 5
M  V30 6 1 7 6
M  V30 7 1 8 3
M  V30 8 2 8 7
M  V30 9 1 9 8
M  V30 10 1 1 10 CFG=1
M  V30 11 1 11 2
M  V30 12 1 12 2
M  V30 13 1 13 2
M  V30 14 1 14 5
M  V30 15 1 15 6
M  V30 16 1 16 7
M  V30 17 1 17 9
M  V30 18 1 18 9
M  V30 19 1 19 9
M  V30 20 1 20 1
M  V30 END BOND
M  V30 END CTAB
M  END
$$$$
R-group 470 (38849-1)
     RDKit          3D

  0  0  0  0  0  0  0  0  0  0999 V3000
M  V30 BEGIN CTAB
M  V30 COUNTS 14 14 0 0 1
M  V30 BEGIN ATOM
M  V30 1 N 73.069700 53.941700 42.109300 0
M  V30 2 C 71.672200 53.915900 42.409100 0
M  V30 3 C 73.816400 55.118500 42.147200 0
M  V30 4 C 73.662200 56.216600 42.920600 0
M  V30 5 C 74.702800 57.062700 42.522600 0
M  V30 6 N 75.489400 56.547100 41.593000 0
M  V30 7 N 74.937400 55.343200 41.379500 0
M  V30 8 H 71.506200 54.451700 43.324300 0
M  V30 9 H 71.130700 54.441600 41.615700 0
M  V30 10 H 71.298400 52.870600 42.519900 0
M  V30 11 H 72.898700 56.385900 43.666700 0
M  V30 12 H 74.870800 58.047000 42.934600 0
M  V30 13 H 75.318900 54.693100 40.708800 0
M  V30 14 R 73.587900 52.747400 41.545200 0
M  V30 END ATOM
M  V30 BEGIN BOND
M  V30 1 1 2 1
M  V30 2 1 3 1
M  V30 3 2 4 3
M  V30 4 1 5 4
M  V30 5 2 6 5
M  V30 6 1 7 3
M  V30 7 1 7 6
M  V30 8 1 8 2
M  V30 9 1 9 2
M  V30 10 1 10 2
M  V30 11 1 11 4
M  V30 12 1 12 5
M  V30 13 1 13 7
M  V30 14 1 14 1
M  V30 END BOND
M  V30 END CTAB
M  END
$$$$
R-group 471 (37718-2)
     RDKit          3D

  0  0  0  0  0  0  0  0  0  0999 V3000
M  V30 BEGIN CTAB
M  V30 COUNTS 15 14 0 0 1
M  V30 BEGIN ATOM
M  V30 1 C 73.828600 54.895800 42.721100 0
M  V30 2 C 74.921200 55.749700 42.079200 0 CFG=2
M  V30 3 O 75.672200 56.358400 43.097300 0
M  V30 4 C 74.357300 56.929700 41.304500 0
M  V30 5 C 73.704900 56.560100 39.986600 0
M  V30 6 F 73.672400 57.658700 39.324700 0
M  V30 7 F 74.466200 55.742600 39.324700 0
M  V30 8 F 72.474700 56.096700 39.981200 0
M  V30 9 H 72.870300 55.402200 42.658000 0
M  V30 10 H 74.072300 54.902000 43.777400 0
M  V30 11 H 75.621300 55.161200 41.492300 0
M  V30 12 H 73.677400 57.527900 41.913500 0
M  V30 13 H 75.204000 57.573500 41.068400 0
M  V30 14 H 76.346200 56.896800 42.709300 0
M  V30 15 R 73.670300 53.419800 42.280000 0
M  V30 END ATOM
M  V30 BEGIN BOND
M  V30 1 1 2 1
M  V30 2 1 3 2
M  V30 3 1 4 2
M  V30 4 1 5 4
M  V30 5 1 6 5
M  V30 6 1 7 5
M  V30 7 1 8 5
M  V30 8 1 9 1
M  V30 9 1 10 1
M  V30 10 1 2 11 CFG=3
M  V30 11 1 12 4
M  V30 12 1 13 4
M  V30 13 1 14 3
M  V30 14 1 15 1
M  V30 END BOND
M  V30 END CTAB
M  END
$$$$
R-group 472 (27547-1)
     RDKit          3D

  0  0  0  0  0  0  0  0  0  0999 V3000
M  V30 BEGIN CTAB
M  V30 COUNTS 19 19 0 0 1
M  V30 BEGIN ATOM
M  V30 1 N 74.001600 54.413200 42.129000 0
M  V30 2 C 75.307900 54.955800 41.763800 0
M  V30 3 C 75.557500 56.320100 42.413000 0
M  V30 4 O 74.451300 57.159400 42.130700 0
M  V30 5 C 73.226400 56.605300 42.592000 0
M  V30 6 C 72.904900 55.258500 41.869400 0 CFG=1
M  V30 7 C 72.655100 55.532200 40.332500 0
M  V30 8 O 71.561700 54.857500 39.724600 0
M  V30 9 H 76.072300 54.282800 42.105800 0
M  V30 10 H 75.426200 55.058700 40.690900 0
M  V30 11 H 75.676500 56.216700 43.492000 0
M  V30 12 H 76.471700 56.773500 42.027100 0
M  V30 13 H 73.270000 56.458900 43.672000 0
M  V30 14 H 72.472300 57.364400 42.412600 0
M  V30 15 H 72.074500 54.762100 42.407700 0
M  V30 16 H 72.462100 56.596100 40.182100 0
M  V30 17 H 73.538300 55.344000 39.726900 0
M  V30 18 H 70.917100 54.666200 40.391100 0
M  V30 19 R 73.709400 52.996200 42.075800 0
M  V30 END ATOM
M  V30 BEGIN BOND
M  V30 1 1 2 1
M  V30 2 1 3 2
M  V30 3 1 4 3
M  V30 4 1 5 4
M  V30 5 1 6 1
M  V30 6 1 6 5
M  V30 7 1 7 6
M  V30 8 1 8 7
M  V30 9 1 9 2
M  V30 10 1 10 2
M  V30 11 1 11 3
M  V30 12 1 12 3
M  V30 13 1 13 5
M  V30 14 1 14 5
M  V30 15 1 6 15 CFG=1
M  V30 16 1 16 7
M  V30 17 1 17 7
M  V30 18 1 18 8
M  V30 19 1 19 1
M  V30 END BOND
M  V30 END CTAB
M  END
$$$$
R-group 473 (23995-2)
     RDKit          3D

  0  0  0  0  0  0  0  0  0  0999 V3000
M  V30 BEGIN CTAB
M  V30 COUNTS 17 16 0 0 1
M  V30 BEGIN ATOM
M  V30 1 S 73.715800 55.363400 41.587700 0
M  V30 2 O 73.268900 55.879400 40.284600 0
M  V30 3 O 73.357600 56.063300 42.832200 0
M  V30 4 N 75.383000 55.367100 41.470100 0
M  V30 5 C 76.238500 56.390400 42.059600 0 CFG=1
M  V30 6 C 76.119700 57.644600 41.215600 0
M  V30 7 C 76.014800 56.530300 43.576000 0
M  V30 8 O 75.672300 55.257600 44.124900 0
M  V30 9 H 77.254600 56.071800 41.956200 0
M  V30 10 H 76.872100 58.377700 41.491900 0
M  V30 11 H 76.263100 57.424800 40.154700 0
M  V30 12 H 75.119500 58.057100 41.325400 0
M  V30 13 H 76.871600 56.918000 44.124800 0
M  V30 14 H 75.239300 57.275800 43.724400 0
M  V30 15 H 75.752100 54.439000 41.671400 0
M  V30 16 H 74.737500 55.152100 43.991800 0
M  V30 17 R 73.357300 53.537500 41.756600 0
M  V30 END ATOM
M  V30 BEGIN BOND
M  V30 1 2 2 1
M  V30 2 2 3 1
M  V30 3 1 4 1
M  V30 4 1 5 4
M  V30 5 1 6 5
M  V30 6 1 7 5
M  V30 7 1 8 7
M  V30 8 1 5 9 CFG=1
M  V30 9 1 10 6
M  V30 10 1 11 6
M  V30 11 1 12 6
M  V30 12 1 13 7
M  V30 13 1 14 7
M  V30 14 1 15 4
M  V30 15 1 16 8
M  V30 16 1 17 1
M  V30 END BOND
M  V30 END CTAB
M  END
$$$$
R-group 474 (39679-1)
     RDKit          3D

  0  0  0  0  0  0  0  0  0  0999 V3000
M  V30 BEGIN CTAB
M  V30 COUNTS 19 18 0 0 1
M  V30 BEGIN ATOM
M  V30 1 C 72.472000 58.451000 41.829100 0
M  V30 2 C 72.940900 57.575400 42.987400 0
M  V30 3 O 74.342500 57.476200 42.924700 0
M  V30 4 C 74.919900 56.679800 41.910500 0
M  V30 5 C 75.091000 55.275500 42.470100 0 CFG=1
M  V30 6 C 75.671900 55.298600 43.905300 0
M  V30 7 O 73.782200 54.716800 42.444800 0
M  V30 8 H 71.476100 58.858200 42.005600 0
M  V30 9 H 73.155700 59.277000 41.724800 0
M  V30 10 H 72.471600 57.910900 40.883000 0
M  V30 11 H 72.472700 56.597400 43.021700 0
M  V30 12 H 72.699900 58.057000 43.933100 0
M  V30 13 H 75.903000 57.097700 41.691400 0
M  V30 14 H 74.362300 56.684200 40.974000 0
M  V30 15 H 75.760900 54.747300 41.801300 0
M  V30 16 H 76.270000 56.191500 44.089000 0
M  V30 17 H 74.869000 55.257800 44.641000 0
M  V30 18 H 76.317200 54.452400 44.125100 0
M  V30 19 R 73.587100 53.353200 42.110200 0
M  V30 END ATOM
M  V30 BEGIN BOND
M  V30 1 1 2 1
M  V30 2 1 3 2
M  V30 3 1 4 3
M  V30 4 1 5 4
M  V30 5 1 6 5
M  V30 6 1 7 5
M  V30 7 1 8 1
M  V30 8 1 9 1
M  V30 9 1 10 1
M  V30 10 1 11 2
M  V30 11 1 12 2
M  V30 12 1 13 4
M  V30 13 1 14 4
M  V30 14 1 5 15 CFG=3
M  V30 15 1 16 6
M  V30 16 1 17 6
M  V30 17 1 18 6
M  V30 18 1 19 7
M  V30 END BOND
M  V30 END CTAB
M  END
$$$$
R-group 475 (11510-1)
     RDKit          3D

  0  0  0  0  0  0  0  0  0  0999 V3000
M  V30 BEGIN CTAB
M  V30 COUNTS 17 17 0 0 1
M  V30 BEGIN ATOM
M  V30 1 O 73.666400 54.092500 42.524100 0
M  V30 2 C 72.516200 54.859100 42.524400 0
M  V30 3 C 73.112800 56.189500 43.020200 0
M  V30 4 C 74.312900 56.533700 42.219300 0
M  V30 5 C 75.610000 56.842500 42.718200 0
M  V30 6 C 76.412600 57.086500 41.647400 0
M  V30 7 N 75.672100 56.855800 40.535400 0
M  V30 8 C 74.385200 56.513300 40.856400 0
M  V30 9 H 72.229000 54.855000 41.475200 0
M  V30 10 H 71.677100 54.485200 43.119600 0
M  V30 11 H 72.479700 57.062500 42.961100 0
M  V30 12 H 73.372000 56.057800 44.076700 0
M  V30 13 H 75.914000 56.919100 43.751900 0
M  V30 14 H 77.447200 57.389700 41.595500 0
M  V30 15 H 73.657000 56.279500 40.096000 0
M  V30 16 H 76.032000 56.894000 39.593100 0
M  V30 17 R 73.511100 52.798400 42.126300 0
M  V30 END ATOM
M  V30 BEGIN BOND
M  V30 1 1 2 1
M  V30 2 1 3 2
M  V30 3 1 4 3
M  V30 4 1 5 4
M  V30 5 2 6 5
M  V30 6 1 7 6
M  V30 7 2 8 4
M  V30 8 1 8 7
M  V30 9 1 9 2
M  V30 10 1 10 2
M  V30 11 1 11 3
M  V30 12 1 12 3
M  V30 13 1 13 5
M  V30 14 1 14 6
M  V30 15 1 15 8
M  V30 16 1 16 7
M  V30 17 1 17 1
M  V30 END BOND
M  V30 END CTAB
M  END
$$$$
R-group 476 (26961-2)
     RDKit          3D

  0  0  0  0  0  0  0  0  0  0999 V3000
M  V30 BEGIN CTAB
M  V30 COUNTS 14 14 0 0 1
M  V30 BEGIN ATOM
M  V30 1 C 74.457000 55.572700 41.342400 0 CFG=1
M  V30 2 C 75.942100 55.823400 41.112300 0
M  V30 3 N 74.183600 56.268600 42.573500 0
M  V30 4 C 73.453000 57.358400 42.390100 0
M  V30 5 O 72.950300 58.046900 43.261400 0
M  V30 6 N 73.278100 57.527100 41.081600 0
M  V30 7 C 73.740400 56.490300 40.380000 0
M  V30 8 O 73.705300 56.330000 39.170400 0
M  V30 9 H 76.288300 55.612400 40.124400 0
M  V30 10 H 76.266900 56.842100 41.351900 0
M  V30 11 H 76.472200 55.179300 41.734000 0
M  V30 12 H 74.326700 55.845000 43.470400 0
M  V30 13 H 72.832900 58.352800 40.704800 0
M  V30 14 R 73.895100 54.072400 41.408700 0
M  V30 END ATOM
M  V30 BEGIN BOND
M  V30 1 1 2 1
M  V30 2 1 3 1
M  V30 3 1 4 3
M  V30 4 2 5 4
M  V30 5 1 6 4
M  V30 6 1 7 1
M  V30 7 1 7 6
M  V30 8 2 8 7
M  V30 9 1 9 2
M  V30 10 1 10 2
M  V30 11 1 11 2
M  V30 12 1 12 3
M  V30 13 1 13 6
M  V30 14 1 1 14 CFG=1
M  V30 END BOND
M  V30 END CTAB
M  END
$$$$
R-group 477 (7511-1)
     RDKit          3D

  0  0  0  0  0  0  0  0  0  0999 V3000
M  V30 BEGIN CTAB
M  V30 COUNTS 16 16 0 0 1
M  V30 BEGIN ATOM
M  V30 1 N 73.191900 54.520900 42.455600 0
M  V30 2 C 73.785500 55.711900 42.524700 0
M  V30 3 O 73.272800 56.642700 43.136900 0
M  V30 4 C 75.061700 55.866400 41.865700 0 CFG=2
M  V30 5 C 76.073200 56.637500 42.627000 0
M  V30 6 C 75.398300 57.257900 41.434600 0 CFG=1
M  V30 7 C 76.074100 57.376400 40.125400 0
M  V30 8 H 75.483900 55.037600 41.302600 0
M  V30 9 H 75.844300 57.016500 43.624000 0
M  V30 10 H 76.965900 56.058500 42.525000 0
M  V30 11 H 74.653100 58.028600 41.618800 0
M  V30 12 H 76.901400 56.670300 40.134800 0
M  V30 13 H 75.356600 57.129900 39.324800 0
M  V30 14 H 76.474300 58.381100 39.981400 0
M  V30 15 H 72.411500 54.456700 43.102200 0
M  V30 16 R 73.510400 53.285500 41.790600 0
M  V30 END ATOM
M  V30 BEGIN BOND
M  V30 1 1 2 1
M  V30 2 2 3 2
M  V30 3 1 4 2
M  V30 4 1 5 4
M  V30 5 1 6 4
M  V30 6 1 6 5
M  V30 7 1 7 6
M  V30 8 1 4 8 CFG=3
M  V30 9 1 9 5
M  V30 10 1 10 5
M  V30 11 1 6 11 CFG=1
M  V30 12 1 12 7
M  V30 13 1 13 7
M  V30 14 1 14 7
M  V30 15 1 15 1
M  V30 16 1 16 1
M  V30 END BOND
M  V30 END CTAB
M  END
$$$$
R-group 478 (753-1)
     RDKit          3D

  0  0  0  0  0  0  0  0  0  0999 V3000
M  V30 BEGIN CTAB
M  V30 COUNTS 16 16 0 0 1
M  V30 BEGIN ATOM
M  V30 1 C 74.221000 54.843300 42.667800 0 CFG=1
M  V30 2 C 75.581300 55.382800 42.283500 0
M  V30 3 C 75.307900 56.608800 41.449800 0
M  V30 4 O 76.204700 57.258000 40.925100 0
M  V30 5 N 74.003000 56.856800 41.403700 0
M  V30 6 C 73.272500 57.905300 40.688700 0
M  V30 7 C 73.272100 55.838300 42.111500 0
M  V30 8 H 74.160700 54.924700 43.747900 0
M  V30 9 H 76.163100 55.658500 43.162000 0
M  V30 10 H 76.072200 54.645900 41.689100 0
M  V30 11 H 73.675200 58.058700 39.687500 0
M  V30 12 H 72.233700 57.614100 40.544200 0
M  V30 13 H 73.272600 58.854400 41.238300 0
M  V30 14 H 72.653500 55.258000 41.425400 0
M  V30 15 H 72.675300 56.266100 42.924900 0
M  V30 16 R 73.837000 53.390000 42.252000 0
M  V30 END ATOM
M  V30 BEGIN BOND
M  V30 1 1 2 1
M  V30 2 1 3 2
M  V30 3 2 4 3
M  V30 4 1 5 3
M  V30 5 1 6 5
M  V30 6 1 7 1
M  V30 7 1 7 5
M  V30 8 1 1 8 CFG=1
M  V30 9 1 9 2
M  V30 10 1 10 2
M  V30 11 1 11 6
M  V30 12 1 12 6
M  V30 13 1 13 6
M  V30 14 1 14 7
M  V30 15 1 15 7
M  V30 16 1 16 1
M  V30 END BOND
M  V30 END CTAB
M  END
$$$$
R-group 479 (18917-1)
     RDKit          3D

  0  0  0  0  0  0  0  0  0  0999 V3000
M  V30 BEGIN CTAB
M  V30 COUNTS 21 20 0 0 1
M  V30 BEGIN ATOM
M  V30 1 C 75.802900 56.942900 40.530600 0
M  V30 2 C 75.722700 55.588700 41.229800 0
M  V30 3 C 74.326800 55.273600 41.827800 0 CFG=2
M  V30 4 C 74.227400 55.964400 43.204900 0
M  V30 5 C 72.922300 56.725900 43.421800 0
M  V30 6 C 72.919300 58.058600 42.634900 0
M  V30 7 O 72.872400 58.057200 41.226500 0
M  V30 8 H 76.799400 57.113000 40.124700 0
M  V30 9 H 75.079900 57.026900 39.720800 0
M  V30 10 H 75.613500 57.731900 41.251800 0
M  V30 11 H 76.464900 55.657500 42.021200 0
M  V30 12 H 76.070300 54.837300 40.533900 0
M  V30 13 H 73.613700 55.743300 41.157500 0
M  V30 14 H 74.374300 55.261100 44.018700 0
M  V30 15 H 75.048000 56.671000 43.324700 0
M  V30 16 H 72.072200 56.057800 43.324800 0
M  V30 17 H 72.870600 56.987800 44.477100 0
M  V30 18 H 72.129200 58.743700 42.924900 0
M  V30 19 H 73.889900 58.458000 42.885800 0
M  V30 20 H 72.071700 57.639700 40.952400 0
M  V30 21 R 73.849200 53.786300 41.869100 0
M  V30 END ATOM
M  V30 BEGIN BOND
M  V30 1 1 2 1
M  V30 2 1 3 2
M  V30 3 1 4 3
M  V30 4 1 5 4
M  V30 5 1 6 5
M  V30 6 1 7 6
M  V30 7 1 8 1
M  V30 8 1 9 1
M  V30 9 1 10 1
M  V30 10 1 11 2
M  V30 11 1 12 2
M  V30 12 1 3 13 CFG=3
M  V30 13 1 14 4
M  V30 14 1 15 4
M  V30 15 1 16 5
M  V30 16 1 17 5
M  V30 17 1 18 6
M  V30 18 1 19 6
M  V30 19 1 20 7
M  V30 20 1 21 3
M  V30 END BOND
M  V30 END CTAB
M  END
$$$$
R-group 480 (10275-9)
     RDKit          3D

  0  0  0  0  0  0  0  0  0  0999 V3000
M  V30 BEGIN CTAB
M  V30 COUNTS 18 19 0 0 1
M  V30 BEGIN ATOM
M  V30 1 C 74.404800 55.418200 42.915400 0 CFG=2
M  V30 2 C 73.330300 56.546200 42.975700 0 CFG=1
M  V30 3 O 72.472300 56.858000 44.124700 0
M  V30 4 C 73.928000 57.835500 42.452900 0 CFG=2
M  V30 5 O 72.872200 58.457900 41.724700 0
M  V30 6 C 75.109000 57.396000 41.594700 0 CFG=2
M  V30 7 C 74.983100 56.414700 40.480900 0
M  V30 8 C 75.389300 55.950500 41.876800 0 CFG=2
M  V30 9 H 74.920100 55.425200 43.874800 0
M  V30 10 H 72.872300 56.171600 42.098500 0
M  V30 11 H 74.283600 58.439600 43.288800 0
M  V30 12 H 75.955900 58.058000 41.437700 0
M  V30 13 H 73.982300 56.243300 40.096400 0
M  V30 14 H 75.758100 56.459700 39.724800 0
M  V30 15 H 76.426600 55.658000 42.007100 0
M  V30 16 H 72.280100 56.008700 44.524600 0
M  V30 17 H 72.601900 57.877300 41.030800 0
M  V30 18 R 73.913900 53.943400 42.547900 0
M  V30 END ATOM
M  V30 BEGIN BOND
M  V30 1 1 2 1
M  V30 2 1 3 2
M  V30 3 1 4 2
M  V30 4 1 5 4
M  V30 5 1 6 4
M  V30 6 1 7 6
M  V30 7 1 8 1
M  V30 8 1 8 6
M  V30 9 1 8 7
M  V30 10 1 1 9 CFG=1
M  V30 11 1 2 10 CFG=3
M  V30 12 1 4 11 CFG=1
M  V30 13 1 6 12 CFG=3
M  V30 14 1 13 7
M  V30 15 1 14 7
M  V30 16 1 8 15 CFG=3
M  V30 17 1 16 3
M  V30 18 1 17 5
M  V30 19 1 18 1
M  V30 END BOND
M  V30 END CTAB
M  END
$$$$
R-group 481 (16412-1)
     RDKit          3D

  0  0  0  0  0  0  0  0  0  0999 V3000
M  V30 BEGIN CTAB
M  V30 COUNTS 15 14 0 0 1
M  V30 BEGIN ATOM
M  V30 1 O 73.842500 54.597500 42.435300 0
M  V30 2 C 75.156300 55.141700 42.347400 0
M  V30 3 C 75.127500 56.664100 42.149400 0
M  V30 4 F 75.325300 57.257900 43.326000 0
M  V30 5 F 76.126800 57.019100 41.334500 0
M  V30 6 C 73.778900 57.146200 41.579700 0
M  V30 7 F 72.873300 56.790300 42.471300 0
M  V30 8 F 73.683800 58.459000 41.557600 0
M  V30 9 C 73.510900 56.652800 40.134100 0
M  V30 10 F 74.351200 57.258000 39.325400 0
M  V30 11 F 73.736900 55.383200 39.953000 0
M  V30 12 F 72.273400 56.857900 39.723000 0
M  V30 13 H 75.673100 54.889300 43.266300 0
M  V30 14 H 75.671500 54.683300 41.513600 0
M  V30 15 R 73.635200 53.208200 42.252600 0
M  V30 END ATOM
M  V30 BEGIN BOND
M  V30 1 1 2 1
M  V30 2 1 3 2
M  V30 3 1 4 3
M  V30 4 1 5 3
M  V30 5 1 6 3
M  V30 6 1 7 6
M  V30 7 1 8 6
M  V30 8 1 9 6
M  V30 9 1 10 9
M  V30 10 1 11 9
M  V30 11 1 12 9
M  V30 12 1 13 2
M  V30 13 1 14 2
M  V30 14 1 15 1
M  V30 END BOND
M  V30 END CTAB
M  END
$$$$
R-group 482 (44934-2)
     RDKit          3D

  0  0  0  0  0  0  0  0  0  0999 V3000
M  V30 BEGIN CTAB
M  V30 COUNTS 16 17 0 0 1
M  V30 BEGIN ATOM
M  V30 1 N 73.752500 54.876300 41.666300 0
M  V30 2 C 73.333400 55.701400 42.799600 0
M  V30 3 C 74.511900 55.658000 43.726200 0 CFG=2
M  V30 4 C 75.684400 56.600800 43.657300 0
M  V30 5 C 75.672200 55.248400 42.984400 0 CFG=2
M  V30 6 C 75.204800 55.068100 41.583200 0 CFG=2
M  V30 7 C 75.663800 56.286700 40.955300 0
M  V30 8 N 76.072100 57.258000 40.524700 0
M  V30 9 H 72.408000 55.375500 43.274300 0
M  V30 10 H 73.190400 56.730500 42.466000 0
M  V30 11 H 74.453500 55.136900 44.676000 0
M  V30 12 H 76.331100 56.684900 44.509600 0
M  V30 13 H 75.519100 57.530900 43.119900 0
M  V30 14 H 76.071800 54.386800 43.501200 0
M  V30 15 H 75.706400 54.259300 41.081100 0
M  V30 16 R 73.385100 53.450700 41.805800 0
M  V30 END ATOM
M  V30 BEGIN BOND
M  V30 1 1 2 1
M  V30 2 1 3 2
M  V30 3 1 4 3
M  V30 4 1 5 3
M  V30 5 1 5 4
M  V30 6 1 6 1
M  V30 7 1 6 5
M  V30 8 1 7 6
M  V30 9 3 8 7
M  V30 10 1 9 2
M  V30 11 1 10 2
M  V30 12 1 3 11 CFG=1
M  V30 13 1 12 4
M  V30 14 1 13 4
M  V30 15 1 5 14 CFG=1
M  V30 16 1 6 15 CFG=3
M  V30 17 1 16 1
M  V30 END BOND
M  V30 END CTAB
M  END
$$$$
R-group 483 (15482-1)
     RDKit          3D

  0  0  0  0  0  0  0  0  0  0999 V3000
M  V30 BEGIN CTAB
M  V30 COUNTS 17 17 0 0 1
M  V30 BEGIN ATOM
M  V30 1 N 73.269800 54.474300 41.707100 0
M  V30 2 C 73.075100 55.243400 42.924800 0
M  V30 3 C 73.311100 56.754000 42.801700 0
M  V30 4 N 74.207500 56.952700 41.750100 0
M  V30 5 C 75.568100 56.857200 41.813600 0
M  V30 6 C 75.958600 56.855400 40.524700 0
M  V30 7 C 74.752000 56.858000 39.768600 0
M  V30 8 N 73.687800 56.995600 40.508500 0
M  V30 9 H 74.022700 54.859500 41.150500 0
M  V30 10 H 72.074100 55.057600 43.323000 0
M  V30 11 H 73.850600 54.929000 43.621900 0
M  V30 12 H 72.472500 57.371100 42.569600 0
M  V30 13 H 73.726700 57.181300 43.702400 0
M  V30 14 H 76.118700 56.783100 42.737900 0
M  V30 15 H 76.967500 56.809500 40.146700 0
M  V30 16 H 74.632100 56.838700 38.692900 0
M  V30 17 R 73.310300 53.045700 41.771800 0
M  V30 END ATOM
M  V30 BEGIN BOND
M  V30 1 1 2 1
M  V30 2 1 3 2
M  V30 3 1 4 3
M  V30 4 1 5 4
M  V30 5 2 6 5
M  V30 6 1 7 6
M  V30 7 1 8 4
M  V30 8 2 8 7
M  V30 9 1 9 1
M  V30 10 1 10 2
M  V30 11 1 11 2
M  V30 12 1 12 3
M  V30 13 1 13 3
M  V30 14 1 14 5
M  V30 15 1 15 6
M  V30 16 1 16 7
M  V30 17 1 17 1
M  V30 END BOND
M  V30 END CTAB
M  END
$$$$
R-group 484 (22181-2)
     RDKit          3D

  0  0  0  0  0  0  0  0  0  0999 V3000
M  V30 BEGIN CTAB
M  V30 COUNTS 21 21 0 0 1
M  V30 BEGIN ATOM
M  V30 1 S 74.249600 55.475400 41.524800 0
M  V30 2 O 73.672300 56.384700 42.523600 0
M  V30 3 O 75.672100 55.601600 41.213300 0
M  V30 4 N 73.452600 55.749600 40.031100 0
M  V30 5 C 72.039800 56.025300 40.124200 0
M  V30 6 C 71.277100 55.879500 38.883600 0 CFG=2
M  V30 7 C 69.785900 56.230300 38.877500 0
M  V30 8 C 69.102000 54.877700 38.780100 0
M  V30 9 C 70.114800 54.044100 38.004800 0
M  V30 10 O 71.367400 54.472700 38.513000 0
M  V30 11 H 71.492400 55.221000 40.525500 0
M  V30 12 H 71.943100 57.026100 40.524300 0
M  V30 13 H 71.857600 56.703800 38.524900 0
M  V30 14 H 69.461200 56.830700 39.725600 0
M  V30 15 H 69.568200 56.802600 37.974100 0
M  V30 16 H 68.965200 54.445100 39.767600 0
M  V30 17 H 68.128200 54.924700 38.292700 0
M  V30 18 H 69.974800 52.972400 38.146000 0
M  V30 19 H 70.066500 54.255200 36.937900 0
M  V30 20 H 73.629600 54.989500 39.377500 0
M  V30 21 R 73.745900 53.708000 41.936800 0
M  V30 END ATOM
M  V30 BEGIN BOND
M  V30 1 2 2 1
M  V30 2 2 3 1
M  V30 3 1 4 1
M  V30 4 1 5 4
M  V30 5 1 6 5
M  V30 6 1 7 6
M  V30 7 1 8 7
M  V30 8 1 9 8
M  V30 9 1 10 6
M  V30 10 1 10 9
M  V30 11 1 11 5
M  V30 12 1 12 5
M  V30 13 1 6 13 CFG=3
M  V30 14 1 14 7
M  V30 15 1 15 7
M  V30 16 1 16 8
M  V30 17 1 17 8
M  V30 18 1 18 9
M  V30 19 1 19 9
M  V30 20 1 20 4
M  V30 21 1 21 1
M  V30 END BOND
M  V30 END CTAB
M  END
$$$$
R-group 485 (18511-2)
     RDKit          3D

  0  0  0  0  0  0  0  0  0  0999 V3000
M  V30 BEGIN CTAB
M  V30 COUNTS 21 20 0 0 1
M  V30 BEGIN ATOM
M  V30 1 C 74.430700 54.851500 42.647100 0 CFG=2
M  V30 2 C 75.226200 55.224400 43.925400 0
M  V30 3 C 73.277300 55.800900 42.494800 0
M  V30 4 O 73.677800 57.128100 42.549200 0
M  V30 5 C 74.173100 57.664100 41.349500 0
M  V30 6 C 73.264400 57.585200 40.109500 0
M  V30 7 C 75.645700 57.312200 41.023600 0
M  V30 8 H 75.150400 54.982700 41.853200 0
M  V30 9 H 74.591400 55.248300 44.809600 0
M  V30 10 H 76.075800 54.573600 44.112700 0
M  V30 11 H 75.671100 56.213800 43.820200 0
M  V30 12 H 72.872600 55.601800 41.525100 0
M  V30 13 H 72.522400 55.656700 43.269400 0
M  V30 14 H 74.072600 58.682100 41.725000 0
M  V30 15 H 73.617400 58.260100 39.326300 0
M  V30 16 H 73.247300 56.587300 39.669400 0
M  V30 17 H 72.242500 57.859800 40.369600 0
M  V30 18 H 76.085500 58.058000 40.365800 0
M  V30 19 H 76.266500 57.266800 41.915600 0
M  V30 20 H 75.731000 56.374900 40.476200 0
M  V30 21 R 73.859700 53.423900 42.417500 0
M  V30 END ATOM
M  V30 BEGIN BOND
M  V30 1 1 2 1
M  V30 2 1 3 1
M  V30 3 1 4 3
M  V30 4 1 5 4
M  V30 5 1 6 5
M  V30 6 1 7 5
M  V30 7 1 1 8 CFG=3
M  V30 8 1 9 2
M  V30 9 1 10 2
M  V30 10 1 11 2
M  V30 11 1 12 3
M  V30 12 1 13 3
M  V30 13 1 14 5
M  V30 14 1 15 6
M  V30 15 1 16 6
M  V30 16 1 17 6
M  V30 17 1 18 7
M  V30 18 1 19 7
M  V30 19 1 20 7
M  V30 20 1 21 1
M  V30 END BOND
M  V30 END CTAB
M  END
$$$$
R-group 486 (23270-2)
     RDKit          3D

  0  0  0  0  0  0  0  0  0  0999 V3000
M  V30 BEGIN CTAB
M  V30 COUNTS 15 15 0 0 1
M  V30 BEGIN ATOM
M  V30 1 N 74.033800 54.501100 41.724400 0
M  V30 2 C 72.872400 55.257300 41.482900 0
M  V30 3 C 72.874600 55.847700 40.072800 0
M  V30 4 F 72.485200 57.124600 40.105400 0
M  V30 5 F 72.095100 55.168300 39.228900 0
M  V30 6 C 74.338400 55.740800 39.667400 0
M  V30 7 C 75.044600 55.067800 40.862900 0 CFG=1
M  V30 8 C 75.634200 56.067500 41.725500 0
M  V30 9 N 76.072200 56.858100 42.426100 0
M  V30 10 H 72.873600 56.043600 42.240000 0
M  V30 11 H 72.030500 54.581200 41.614700 0
M  V30 12 H 74.768700 56.720900 39.470500 0
M  V30 13 H 74.469500 55.165400 38.752200 0
M  V30 14 H 75.822500 54.366600 40.567900 0
M  V30 15 R 73.730300 53.092500 41.848100 0
M  V30 END ATOM
M  V30 BEGIN BOND
M  V30 1 1 2 1
M  V30 2 1 3 2
M  V30 3 1 4 3
M  V30 4 1 5 3
M  V30 5 1 6 3
M  V30 6 1 7 1
M  V30 7 1 7 6
M  V30 8 1 8 7
M  V30 9 3 9 8
M  V30 10 1 10 2
M  V30 11 1 11 2
M  V30 12 1 12 6
M  V30 13 1 13 6
M  V30 14 1 7 14 CFG=3
M  V30 15 1 15 1
M  V30 END BOND
M  V30 END CTAB
M  END
$$$$
R-group 487 (40466-1)
     RDKit          3D

  0  0  0  0  0  0  0  0  0  0999 V3000
M  V30 BEGIN CTAB
M  V30 COUNTS 23 23 0 0 1
M  V30 BEGIN ATOM
M  V30 1 C 73.871900 55.443700 41.819000 0
M  V30 2 C 75.411900 55.754100 41.664800 0 CFG=1
M  V30 3 O 75.704700 56.414800 40.487700 0
M  V30 4 C 76.058200 56.758000 42.563000 0
M  V30 5 O 76.068200 56.057600 43.737600 0
M  V30 6 C 73.094800 56.395300 40.837300 0
M  V30 7 C 72.929500 57.743100 41.592900 0
M  V30 8 C 72.954800 57.438500 43.105200 0
M  V30 9 C 73.226000 55.930400 43.159000 0
M  V30 10 H 76.024500 54.857300 41.675000 0
M  V30 11 H 77.036100 57.063100 42.179200 0
M  V30 12 H 75.489500 57.657700 42.662000 0
M  V30 13 H 73.537000 56.558700 39.853000 0
M  V30 14 H 72.146900 55.963200 40.518200 0
M  V30 15 H 73.771900 58.385900 41.361700 0
M  V30 16 H 72.071900 58.318900 41.270500 0
M  V30 17 H 73.741000 58.000900 43.597700 0
M  V30 18 H 72.090000 57.718900 43.721100 0
M  V30 19 H 72.248000 55.466100 43.305100 0
M  V30 20 H 73.779300 55.654600 44.044700 0
M  V30 21 H 76.576000 56.127500 40.234400 0
M  V30 22 H 76.338700 56.653600 44.425200 0
M  V30 23 R 73.596800 53.875300 41.656300 0
M  V30 END ATOM
M  V30 BEGIN BOND
M  V30 1 1 2 1
M  V30 2 1 3 2
M  V30 3 1 4 2
M  V30 4 1 5 4
M  V30 5 1 6 1
M  V30 6 1 7 6
M  V30 7 1 8 7
M  V30 8 1 9 1
M  V30 9 1 9 8
M  V30 10 1 2 10 CFG=3
M  V30 11 1 11 4
M  V30 12 1 12 4
M  V30 13 1 13 6
M  V30 14 1 14 6
M  V30 15 1 15 7
M  V30 16 1 16 7
M  V30 17 1 17 8
M  V30 18 1 18 8
M  V30 19 1 19 9
M  V30 20 1 20 9
M  V30 21 1 21 3
M  V30 22 1 22 5
M  V30 23 1 23 1
M  V30 END BOND
M  V30 END CTAB
M  END
$$$$
R-group 488 (15595-1)
     RDKit          3D

  0  0  0  0  0  0  0  0  0  0999 V3000
M  V30 BEGIN CTAB
M  V30 COUNTS 15 15 0 0 1
M  V30 BEGIN ATOM
M  V30 1 N 74.496100 54.894900 42.437000 0
M  V30 2 C 75.431700 55.562100 41.520100 0
M  V30 3 C 75.420700 56.997900 41.975700 0
M  V30 4 C 74.088400 57.106700 42.677400 0 CFG=1
M  V30 5 C 73.198900 58.077000 42.131700 0
M  V30 6 N 72.472200 58.858000 41.724600 0
M  V30 7 C 73.388400 55.799200 42.513200 0
M  V30 8 H 75.064100 55.539200 40.495400 0
M  V30 9 H 76.467600 55.258000 41.540900 0
M  V30 10 H 75.523000 57.658000 41.118400 0
M  V30 11 H 76.236300 57.202700 42.670700 0
M  V30 12 H 74.223000 57.363100 43.724300 0
M  V30 13 H 72.680400 55.637800 43.324700 0
M  V30 14 H 72.872300 55.776900 41.555500 0
M  V30 15 R 74.017400 53.545000 42.140800 0
M  V30 END ATOM
M  V30 BEGIN BOND
M  V30 1 1 2 1
M  V30 2 1 3 2
M  V30 3 1 4 3
M  V30 4 1 5 4
M  V30 5 3 6 5
M  V30 6 1 7 1
M  V30 7 1 7 4
M  V30 8 1 8 2
M  V30 9 1 9 2
M  V30 10 1 10 3
M  V30 11 1 11 3
M  V30 12 1 4 12 CFG=1
M  V30 13 1 13 7
M  V30 14 1 14 7
M  V30 15 1 15 1
M  V30 END BOND
M  V30 END CTAB
M  END
$$$$
R-group 489 (16396-1)
     RDKit          3D

  0  0  0  0  0  0  0  0  0  0999 V3000
M  V30 BEGIN CTAB
M  V30 COUNTS 19 19 0 0 1
M  V30 BEGIN ATOM
M  V30 1 C 74.266600 54.489200 42.659600 0
M  V30 2 C 73.271600 55.489300 42.300900 0 CFG=1
M  V30 3 C 73.658400 56.951800 42.406800 0
M  V30 4 C 73.865700 56.964200 40.887400 0 CFG=1
M  V30 5 C 73.202300 58.057200 40.147100 0
M  V30 6 O 75.227500 56.858000 40.523300 0
M  V30 7 C 73.090600 55.684500 40.786400 0
M  V30 8 H 74.509100 54.646600 43.711400 0
M  V30 9 H 75.199200 54.664400 42.123200 0
M  V30 10 H 72.383200 55.296400 42.923400 0
M  V30 11 H 72.835100 57.581700 42.753200 0
M  V30 12 H 74.559300 57.133300 42.996300 0
M  V30 13 H 72.129300 57.881900 40.124900 0
M  V30 14 H 73.261200 58.857800 40.832200 0
M  V30 15 H 73.621900 58.300300 39.171500 0
M  V30 16 H 73.627700 55.058800 40.094000 0
M  V30 17 H 72.073600 55.762000 40.418400 0
M  V30 18 H 75.670000 57.623000 40.860400 0
M  V30 19 R 73.724500 53.082000 42.381600 0
M  V30 END ATOM
M  V30 BEGIN BOND
M  V30 1 1 2 1
M  V30 2 1 3 2
M  V30 3 1 4 3
M  V30 4 1 5 4
M  V30 5 1 4 6 CFG=1
M  V30 6 1 7 2
M  V30 7 1 7 4
M  V30 8 1 8 1
M  V30 9 1 9 1
M  V30 10 1 2 10 CFG=1
M  V30 11 1 11 3
M  V30 12 1 12 3
M  V30 13 1 13 5
M  V30 14 1 14 5
M  V30 15 1 15 5
M  V30 16 1 16 7
M  V30 17 1 17 7
M  V30 18 1 18 6
M  V30 19 1 19 1
M  V30 END BOND
M  V30 END CTAB
M  END
$$$$
R-group 490 (16182-2)
     RDKit          3D

  0  0  0  0  0  0  0  0  0  0999 V3000
M  V30 BEGIN CTAB
M  V30 COUNTS 16 15 0 0 1
M  V30 BEGIN ATOM
M  V30 1 C 73.030400 58.634300 41.682300 0
M  V30 2 O 72.872200 58.058000 42.924700 0
M  V30 3 C 73.789100 57.090100 43.324600 0
M  V30 4 C 74.249500 56.008900 42.345300 0 CFG=1
M  V30 5 C 75.672700 55.658200 42.733300 0
M  V30 6 F 75.672200 55.258000 44.009000 0
M  V30 7 O 73.379200 54.889200 42.519300 0
M  V30 8 H 72.441700 59.548100 41.606300 0
M  V30 9 H 74.072200 58.856900 41.724700 0
M  V30 10 H 72.793500 57.967400 40.853500 0
M  V30 11 H 73.272000 56.580900 44.130400 0
M  V30 12 H 74.634100 57.657900 43.724400 0
M  V30 13 H 74.242800 56.372600 41.321400 0
M  V30 14 H 76.070400 54.886300 42.083900 0
M  V30 15 H 76.337500 56.519000 42.655600 0
M  V30 16 R 73.573800 53.671000 41.798100 0
M  V30 END ATOM
M  V30 BEGIN BOND
M  V30 1 1 2 1
M  V30 2 1 3 2
M  V30 3 1 4 3
M  V30 4 1 5 4
M  V30 5 1 6 5
M  V30 6 1 7 4
M  V30 7 1 8 1
M  V30 8 1 9 1
M  V30 9 1 10 1
M  V30 10 1 11 3
M  V30 11 1 12 3
M  V30 12 1 4 13 CFG=3
M  V30 13 1 14 5
M  V30 14 1 15 5
M  V30 15 1 16 7
M  V30 END BOND
M  V30 END CTAB
M  END
$$$$
R-group 491 (7192-1)
     RDKit          3D

  0  0  0  0  0  0  0  0  0  0999 V3000
M  V30 BEGIN CTAB
M  V30 COUNTS 23 23 0 0 1
M  V30 BEGIN ATOM
M  V30 1 C 73.499900 57.796200 43.553400 0
M  V30 2 C 73.271900 58.010900 42.086500 0
M  V30 3 O 72.470800 58.858000 41.725000 0
M  V30 4 N 73.912400 57.253700 41.209500 0
M  V30 5 C 73.599000 57.290500 39.783200 0
M  V30 6 C 74.643900 56.416300 39.138000 0
M  V30 7 C 75.816300 56.464900 40.130400 0
M  V30 8 C 75.181400 56.606300 41.497600 0 CFG=2
M  V30 9 C 75.016100 55.280800 42.257200 0
M  V30 10 O 73.685100 54.779800 42.187600 0
M  V30 11 H 74.548600 58.030700 43.724700 0
M  V30 12 H 72.872400 58.457100 44.147900 0
M  V30 13 H 73.272200 56.766300 43.827700 0
M  V30 14 H 73.672200 58.303600 39.384200 0
M  V30 15 H 72.591900 56.920600 39.580800 0
M  V30 16 H 74.871200 56.743200 38.127800 0
M  V30 17 H 74.231200 55.418600 39.044600 0
M  V30 18 H 76.403300 57.369900 39.966800 0
M  V30 19 H 76.501700 55.620300 40.125500 0
M  V30 20 H 75.835200 57.256200 42.082800 0
M  V30 21 H 75.266200 55.418200 43.309600 0
M  V30 22 H 75.737500 54.577600 41.867900 0
M  V30 23 R 73.506300 53.372800 42.068400 0
M  V30 END ATOM
M  V30 BEGIN BOND
M  V30 1 1 2 1
M  V30 2 2 3 2
M  V30 3 1 4 2
M  V30 4 1 5 4
M  V30 5 1 6 5
M  V30 6 1 7 6
M  V30 7 1 8 4
M  V30 8 1 8 7
M  V30 9 1 9 8
M  V30 10 1 10 9
M  V30 11 1 11 1
M  V30 12 1 12 1
M  V30 13 1 13 1
M  V30 14 1 14 5
M  V30 15 1 15 5
M  V30 16 1 16 6
M  V30 17 1 17 6
M  V30 18 1 18 7
M  V30 19 1 19 7
M  V30 20 1 8 20 CFG=1
M  V30 21 1 21 9
M  V30 22 1 22 9
M  V30 23 1 23 10
M  V30 END BOND
M  V30 END CTAB
M  END
$$$$
R-group 492 (14241-2)
     RDKit          3D

  0  0  0  0  0  0  0  0  0  0999 V3000
M  V30 BEGIN CTAB
M  V30 COUNTS 13 12 0 0 1
M  V30 BEGIN ATOM
M  V30 1 O 73.624000 54.448700 41.912500 0
M  V30 2 C 74.785400 55.009200 41.326500 0
M  V30 3 C 75.046900 56.262000 42.113500 0 CFG=2
M  V30 4 O 75.671800 55.973100 43.324200 0
M  V30 5 C 73.743000 56.976100 42.380100 0
M  V30 6 F 74.064200 58.058100 42.926300 0
M  V30 7 F 73.251600 57.283500 41.186800 0
M  V30 8 F 72.882000 56.458300 43.268700 0
M  V30 9 H 75.672100 54.383900 41.334200 0
M  V30 10 H 74.563900 55.283900 40.295900 0
M  V30 11 H 75.721100 56.907900 41.548000 0
M  V30 12 H 75.048900 55.487000 43.851200 0
M  V30 13 R 73.470700 53.059900 41.833200 0
M  V30 END ATOM
M  V30 BEGIN BOND
M  V30 1 1 2 1
M  V30 2 1 3 2
M  V30 3 1 4 3
M  V30 4 1 5 3
M  V30 5 1 6 5
M  V30 6 1 7 5
M  V30 7 1 8 5
M  V30 8 1 9 2
M  V30 9 1 10 2
M  V30 10 1 3 11 CFG=3
M  V30 11 1 12 4
M  V30 12 1 13 1
M  V30 END BOND
M  V30 END CTAB
M  END
$$$$
R-group 493 (42267-2)
     RDKit          3D

  0  0  0  0  0  0  0  0  0  0999 V3000
M  V30 BEGIN CTAB
M  V30 COUNTS 18 17 0 0 1
M  V30 BEGIN ATOM
M  V30 1 C 72.922300 58.221200 42.402200 0
M  V30 2 C 73.113800 57.909400 40.913200 0
M  V30 3 C 74.167000 56.825500 40.565600 0 CFG=2
M  V30 4 N 73.592800 55.497900 40.751000 0
M  V30 5 C 73.678800 54.790000 41.886900 0
M  V30 6 O 74.072300 55.297900 42.924700 0
M  V30 7 C 75.623000 56.857900 41.148600 0
M  V30 8 F 75.779500 57.027300 42.457400 0
M  V30 9 F 76.072200 55.664800 40.867000 0
M  V30 10 F 76.472300 57.657900 40.546200 0
M  V30 11 H 72.251600 59.070600 42.525900 0
M  V30 12 H 72.494900 57.379700 42.945800 0
M  V30 13 H 73.869700 58.457500 42.877000 0
M  V30 14 H 73.272100 58.823400 40.348500 0
M  V30 15 H 72.153700 57.573400 40.519500 0
M  V30 16 H 74.288700 56.883400 39.484200 0
M  V30 17 H 73.284500 55.010200 39.924500 0
M  V30 18 R 73.432600 53.283200 41.862700 0
M  V30 END ATOM
M  V30 BEGIN BOND
M  V30 1 1 2 1
M  V30 2 1 3 2
M  V30 3 1 4 3
M  V30 4 1 5 4
M  V30 5 2 6 5
M  V30 6 1 7 3
M  V30 7 1 8 7
M  V30 8 1 9 7
M  V30 9 1 10 7
M  V30 10 1 11 1
M  V30 11 1 12 1
M  V30 12 1 13 1
M  V30 13 1 14 2
M  V30 14 1 15 2
M  V30 15 1 3 16 CFG=3
M  V30 16 1 17 4
M  V30 17 1 18 5
M  V30 END BOND
M  V30 END CTAB
M  END
$$$$
R-group 494 (25577-2)
     RDKit          3D

  0  0  0  0  0  0  0  0  0  0999 V3000
M  V30 BEGIN CTAB
M  V30 COUNTS 17 17 0 0 1
M  V30 BEGIN ATOM
M  V30 1 C 74.269500 54.874600 41.968200 0
M  V30 2 O 75.271500 55.074300 42.638400 0
M  V30 3 N 73.691200 55.868000 41.294200 0
M  V30 4 C 74.072900 57.268100 41.459200 0 CFG=1
M  V30 5 C 72.940200 58.120200 40.887000 0
M  V30 6 C 72.375200 58.818500 42.111100 0
M  V30 7 O 72.872200 58.058000 43.208000 0
M  V30 8 C 74.146400 57.649800 42.962600 0
M  V30 9 H 75.025300 57.440700 40.958000 0
M  V30 10 H 73.272100 58.846700 40.147000 0
M  V30 11 H 72.171800 57.518700 40.400900 0
M  V30 12 H 72.723000 59.842700 42.124700 0
M  V30 13 H 71.286200 58.859100 42.120600 0
M  V30 14 H 74.256700 56.831000 43.654600 0
M  V30 15 H 74.773600 58.456900 43.324900 0
M  V30 16 H 72.875600 55.664500 40.737300 0
M  V30 17 R 73.661500 53.471200 41.938800 0
M  V30 END ATOM
M  V30 BEGIN BOND
M  V30 1 2 2 1
M  V30 2 1 3 1
M  V30 3 1 4 3
M  V30 4 1 5 4
M  V30 5 1 6 5
M  V30 6 1 7 6
M  V30 7 1 8 4
M  V30 8 1 8 7
M  V30 9 1 4 9 CFG=3
M  V30 10 1 10 5
M  V30 11 1 11 5
M  V30 12 1 12 6
M  V30 13 1 13 6
M  V30 14 1 14 8
M  V30 15 1 15 8
M  V30 16 1 16 3
M  V30 17 1 17 1
M  V30 END BOND
M  V30 END CTAB
M  END
$$$$
R-group 495 (8725-1)
     RDKit          3D

  0  0  0  0  0  0  0  0  0  0999 V3000
M  V30 BEGIN CTAB
M  V30 COUNTS 13 12 0 0 1
M  V30 BEGIN ATOM
M  V30 1 C 74.617500 55.154900 41.736600 0
M  V30 2 O 74.524800 55.985600 42.882800 0
M  V30 3 C 73.330000 56.749200 42.947200 0
M  V30 4 C 73.330200 57.789300 41.818200 0
M  V30 5 O 72.472100 58.857900 42.093500 0
M  V30 6 H 75.677100 54.968200 41.573100 0
M  V30 7 H 74.304700 55.660800 40.827000 0
M  V30 8 H 72.472000 56.090500 42.924700 0
M  V30 9 H 73.270500 57.257700 43.907400 0
M  V30 10 H 74.339100 58.181000 41.724200 0
M  V30 11 H 73.034800 57.363100 40.860100 0
M  V30 12 H 72.871300 59.404600 42.750000 0
M  V30 13 R 73.875800 53.811400 41.898400 0
M  V30 END ATOM
M  V30 BEGIN BOND
M  V30 1 1 2 1
M  V30 2 1 3 2
M  V30 3 1 4 3
M  V30 4 1 5 4
M  V30 5 1 6 1
M  V30 6 1 7 1
M  V30 7 1 8 3
M  V30 8 1 9 3
M  V30 9 1 10 4
M  V30 10 1 11 4
M  V30 11 1 12 5
M  V30 12 1 13 1
M  V30 END BOND
M  V30 END CTAB
M  END
$$$$
R-group 496 (10936-2)
     RDKit          3D

  0  0  0  0  0  0  0  0  0  0999 V3000
M  V30 BEGIN CTAB
M  V30 COUNTS 19 19 0 0 1
M  V30 BEGIN ATOM
M  V30 1 C 73.281300 54.429100 42.409700 0 CFG=2
M  V30 2 C 71.813100 54.398400 42.735800 0
M  V30 3 C 73.648900 55.723100 41.676300 0 CFG=1
M  V30 4 C 73.355300 56.878700 42.616000 0
M  V30 5 C 74.604500 57.658400 42.539100 0
M  V30 6 O 75.672200 56.828800 42.215300 0
M  V30 7 C 75.144400 55.860800 41.332200 0
M  V30 8 H 73.845800 54.529500 43.325900 0
M  V30 9 H 71.236200 54.446600 41.817800 0
M  V30 10 H 71.500300 53.526200 43.316400 0
M  V30 11 H 71.672100 55.288700 43.324900 0
M  V30 12 H 73.067500 55.837600 40.762300 0
M  V30 13 H 72.476600 57.460700 42.336200 0
M  V30 14 H 73.264600 56.601600 43.671900 0
M  V30 15 H 74.462000 58.372500 41.726100 0
M  V30 16 H 74.799900 58.154300 43.489200 0
M  V30 17 H 75.683700 54.926900 41.434400 0
M  V30 18 H 75.269400 56.214600 40.311400 0
M  V30 19 R 73.616300 53.108500 41.747900 0
M  V30 END ATOM
M  V30 BEGIN BOND
M  V30 1 1 2 1
M  V30 2 1 3 1
M  V30 3 1 4 3
M  V30 4 1 5 4
M  V30 5 1 6 5
M  V30 6 1 7 3
M  V30 7 1 7 6
M  V30 8 1 1 8 CFG=1
M  V30 9 1 9 2
M  V30 10 1 10 2
M  V30 11 1 11 2
M  V30 12 1 3 12 CFG=3
M  V30 13 1 13 4
M  V30 14 1 14 4
M  V30 15 1 15 5
M  V30 16 1 16 5
M  V30 17 1 17 7
M  V30 18 1 18 7
M  V30 19 1 19 1
M  V30 END BOND
M  V30 END CTAB
M  END
$$$$
R-group 497 (28691-1)
     RDKit          3D

  0  0  0  0  0  0  0  0  0  0999 V3000
M  V30 BEGIN CTAB
M  V30 COUNTS 22 22 0 0 1
M  V30 BEGIN ATOM
M  V30 1 C 74.071000 54.664600 42.591700 0 CFG=1
M  V30 2 C 75.281100 55.134100 41.775700 0
M  V30 3 C 75.601500 56.616600 41.915900 0
M  V30 4 C 74.362400 57.417500 41.488700 0 CFG=1
M  V30 5 C 74.053200 57.383900 39.966800 0
M  V30 6 C 73.612200 56.121600 39.383600 0
M  V30 7 N 73.272300 55.122200 38.924900 0
M  V30 8 C 73.229400 57.022900 42.409700 0
M  V30 9 C 72.875500 55.521600 42.371900 0
M  V30 10 H 74.331200 54.833000 43.639800 0
M  V30 11 H 76.064300 54.517900 42.120800 0
M  V30 12 H 75.212900 54.917100 40.728200 0
M  V30 13 H 76.473700 56.889300 41.312300 0
M  V30 14 H 75.865600 56.850500 42.952400 0
M  V30 15 H 74.471100 58.457600 41.724200 0
M  V30 16 H 74.936600 57.653700 39.390700 0
M  V30 17 H 73.285500 58.103700 39.725600 0
M  V30 18 H 73.461800 57.311600 43.433300 0
M  V30 19 H 72.429600 57.672800 42.111600 0
M  V30 20 H 72.100200 55.265600 43.101600 0
M  V30 21 H 72.489300 55.235700 41.385200 0
M  V30 22 R 73.689500 53.187700 42.390000 0
M  V30 END ATOM
M  V30 BEGIN BOND
M  V30 1 1 2 1
M  V30 2 1 3 2
M  V30 3 1 4 3
M  V30 4 1 5 4
M  V30 5 1 6 5
M  V30 6 3 7 6
M  V30 7 1 8 4
M  V30 8 1 9 1
M  V30 9 1 9 8
M  V30 10 1 1 10 CFG=1
M  V30 11 1 11 2
M  V30 12 1 12 2
M  V30 13 1 13 3
M  V30 14 1 14 3
M  V30 15 1 4 15 CFG=1
M  V30 16 1 16 5
M  V30 17 1 17 5
M  V30 18 1 18 8
M  V30 19 1 19 8
M  V30 20 1 20 9
M  V30 21 1 21 9
M  V30 22 1 22 1
M  V30 END BOND
M  V30 END CTAB
M  END
$$$$
R-group 498 (38486-1)
     RDKit          3D

  0  0  0  0  0  0  0  0  0  0999 V3000
M  V30 BEGIN CTAB
M  V30 COUNTS 18 18 0 0 1
M  V30 BEGIN ATOM
M  V30 1 N 73.815000 55.214100 42.297800 0
M  V30 2 C 72.925000 55.995900 43.240100 0
M  V30 3 C 72.874200 57.404200 42.771000 0
M  V30 4 C 74.260500 57.941900 42.640400 0
M  V30 5 N 75.149200 57.044200 41.897500 0
M  V30 6 C 76.348900 57.685000 41.287100 0
M  V30 7 C 74.896000 55.753800 41.668400 0
M  V30 8 O 75.671900 55.202600 40.908200 0
M  V30 9 H 71.880100 55.683900 43.321600 0
M  V30 10 H 73.271200 56.060200 44.259500 0
M  V30 11 H 72.473400 57.422200 41.761600 0
M  V30 12 H 72.293600 58.051300 43.422700 0
M  V30 13 H 74.692600 58.189400 43.620200 0
M  V30 14 H 74.063700 58.818200 42.031300 0
M  V30 15 H 77.272900 57.308800 41.711300 0
M  V30 16 H 76.388000 57.488800 40.214500 0
M  V30 17 H 76.472400 58.767100 41.325100 0
M  V30 18 R 73.458700 53.785400 42.095400 0
M  V30 END ATOM
M  V30 BEGIN BOND
M  V30 1 1 2 1
M  V30 2 1 3 2
M  V30 3 1 4 3
M  V30 4 1 5 4
M  V30 5 1 6 5
M  V30 6 1 7 1
M  V30 7 1 7 5
M  V30 8 2 8 7
M  V30 9 1 9 2
M  V30 10 1 10 2
M  V30 11 1 11 3
M  V30 12 1 12 3
M  V30 13 1 13 4
M  V30 14 1 14 4
M  V30 15 1 15 6
M  V30 16 1 16 6
M  V30 17 1 17 6
M  V30 18 1 18 1
M  V30 END BOND
M  V30 END CTAB
M  END
$$$$
R-group 499 (40642-1)
     RDKit          3D

  0  0  0  0  0  0  0  0  0  0999 V3000
M  V30 BEGIN CTAB
M  V30 COUNTS 16 15 0 0 1
M  V30 BEGIN ATOM
M  V30 1 O 74.016000 55.177700 42.137300 0
M  V30 2 C 75.383600 55.512700 42.413500 0
M  V30 3 C 75.742200 56.963700 42.084000 0
M  V30 4 C 75.829300 57.193800 40.558300 0
M  V30 5 C 74.453100 57.243200 39.850500 0
M  V30 6 C 73.461400 57.912400 40.718000 0
M  V30 7 N 72.722400 58.438900 41.407100 0
M  V30 8 H 76.026500 54.889300 41.796500 0
M  V30 9 H 75.614100 55.309300 43.461200 0
M  V30 10 H 76.726500 57.199700 42.502400 0
M  V30 11 H 75.064300 57.657900 42.604200 0
M  V30 12 H 76.457200 56.427500 40.122600 0
M  V30 13 H 76.389800 58.109800 40.391600 0
M  V30 14 H 74.089500 56.244900 39.598100 0
M  V30 15 H 74.518800 57.805800 38.922500 0
M  V30 16 R 73.674600 53.800800 41.919500 0
M  V30 END ATOM
M  V30 BEGIN BOND
M  V30 1 1 2 1
M  V30 2 1 3 2
M  V30 3 1 4 3
M  V30 4 1 5 4
M  V30 5 1 6 5
M  V30 6 3 7 6
M  V30 7 1 8 2
M  V30 8 1 9 2
M  V30 9 1 10 3
M  V30 10 1 11 3
M  V30 11 1 12 4
M  V30 12 1 13 4
M  V30 13 1 14 5
M  V30 14 1 15 5
M  V30 15 1 16 1
M  V30 END BOND
M  V30 END CTAB
M  END
$$$$
R-group 500 (36577-1)
     RDKit          3D

  0  0  0  0  0  0  0  0  0  0999 V3000
M  V30 BEGIN CTAB
M  V30 COUNTS 20 20 0 0 1
M  V30 BEGIN ATOM
M  V30 1 C 73.237900 54.833800 41.683200 0 CFG=1
M  V30 2 C 72.885900 55.626100 42.942300 0
M  V30 3 C 72.893400 57.185900 42.830000 0
M  V30 4 C 74.159800 57.727400 42.322600 0
M  V30 5 S 74.627800 56.848100 40.769700 0
M  V30 6 O 73.597800 57.070300 39.741700 0
M  V30 7 O 76.041800 57.201400 40.499000 0
M  V30 8 N 74.533100 55.277700 41.260400 0
M  V30 9 C 75.656500 54.884400 42.070300 0
M  V30 10 H 72.554200 55.168300 40.909600 0
M  V30 11 H 71.919400 55.315700 43.324400 0
M  V30 12 H 73.670600 55.481100 43.678100 0
M  V30 13 H 72.209500 57.707300 42.144500 0
M  V30 14 H 72.659400 57.574700 43.816800 0
M  V30 15 H 74.024400 58.770400 42.066500 0
M  V30 16 H 74.956800 57.572400 43.064400 0
M  V30 17 H 76.068700 53.939900 41.814600 0
M  V30 18 H 76.472100 55.480600 41.723400 0
M  V30 19 H 75.601600 55.129100 43.131300 0
M  V30 20 R 73.126000 53.274200 41.695600 0
M  V30 END ATOM
M  V30 BEGIN BOND
M  V30 1 1 2 1
M  V30 2 1 3 2
M  V30 3 1 4 3
M  V30 4 1 5 4
M  V30 5 2 6 5
M  V30 6 2 7 5
M  V30 7 1 8 1
M  V30 8 1 8 5
M  V30 9 1 9 8
M  V30 10 1 1 10 CFG=3
M  V30 11 1 11 2
M  V30 12 1 12 2
M  V30 13 1 13 3
M  V30 14 1 14 3
M  V30 15 1 15 4
M  V30 16 1 16 4
M  V30 17 1 17 9
M  V30 18 1 18 9
M  V30 19 1 19 9
M  V30 20 1 20 1
M  V30 END BOND
M  V30 END CTAB
M  END
$$$$
R-group 501 (6273-1)
     RDKit          3D

  0  0  0  0  0  0  0  0  0  0999 V3000
M  V30 BEGIN CTAB
M  V30 COUNTS 18 18 0 0 1
M  V30 BEGIN ATOM
M  V30 1 C 76.820600 57.526400 40.436300 0
M  V30 2 C 76.548800 57.197700 41.857600 0
M  V30 3 N 75.307700 56.492500 41.975400 0
M  V30 4 N 75.243100 55.229500 41.526400 0
M  V30 5 C 74.095100 54.770200 41.984000 0
M  V30 6 C 73.413100 55.746900 42.703600 0
M  V30 7 C 74.140200 56.848400 42.536300 0
M  V30 8 C 73.836100 58.125800 43.061300 0
M  V30 9 H 77.835200 57.877900 40.192800 0
M  V30 10 H 76.777400 56.465400 40.135600 0
M  V30 11 H 76.095000 58.029200 39.787500 0
M  V30 12 H 76.704600 57.984900 42.588300 0
M  V30 13 H 77.269100 56.437700 42.139100 0
M  V30 14 H 72.509500 55.657100 43.273300 0
M  V30 15 H 72.925300 58.083500 43.663800 0
M  V30 16 H 74.659300 58.458000 43.723000 0
M  V30 17 H 73.674100 58.798000 42.195500 0
M  V30 18 R 73.718700 53.355200 41.821500 0
M  V30 END ATOM
M  V30 BEGIN BOND
M  V30 1 1 2 1
M  V30 2 1 3 2
M  V30 3 1 4 3
M  V30 4 2 5 4
M  V30 5 1 6 5
M  V30 6 1 7 3
M  V30 7 2 7 6
M  V30 8 1 8 7
M  V30 9 1 9 1
M  V30 10 1 10 1
M  V30 11 1 11 1
M  V30 12 1 12 2
M  V30 13 1 13 2
M  V30 14 1 14 6
M  V30 15 1 15 8
M  V30 16 1 16 8
M  V30 17 1 17 8
M  V30 18 1 18 5
M  V30 END BOND
M  V30 END CTAB
M  END
$$$$
R-group 502 (15177-1)
     RDKit          3D

  0  0  0  0  0  0  0  0  0  0999 V3000
M  V30 BEGIN CTAB
M  V30 COUNTS 19 18 0 0 1
M  V30 BEGIN ATOM
M  V30 1 C 73.356400 54.735600 41.570300 0
M  V30 2 C 72.473000 55.255100 40.408700 0
M  V30 3 C 72.857700 55.279600 42.923600 0
M  V30 4 N 74.702200 55.233000 41.307100 0
M  V30 5 S 75.153500 56.792400 41.815800 0
M  V30 6 C 76.319900 57.279600 40.527600 0
M  V30 7 O 73.969400 57.658100 41.732200 0
M  V30 8 O 75.858600 56.623400 43.088100 0
M  V30 9 H 71.457800 54.858100 40.481100 0
M  V30 10 H 72.424100 56.340600 40.384400 0
M  V30 11 H 72.866700 54.980800 39.429400 0
M  V30 12 H 71.974300 54.725600 43.246900 0
M  V30 13 H 73.672100 55.258200 43.655700 0
M  V30 14 H 72.499200 56.305700 42.926800 0
M  V30 15 H 76.985500 58.057000 40.899400 0
M  V30 16 H 76.872400 56.413500 40.180300 0
M  V30 17 H 75.712800 57.657900 39.724700 0
M  V30 18 H 75.032500 55.003000 40.372600 0
M  V30 19 R 73.401500 53.174400 41.644600 0
M  V30 END ATOM
M  V30 BEGIN BOND
M  V30 1 1 2 1
M  V30 2 1 3 1
M  V30 3 1 4 1
M  V30 4 1 5 4
M  V30 5 1 6 5
M  V30 6 2 7 5
M  V30 7 2 8 5
M  V30 8 1 9 2
M  V30 9 1 10 2
M  V30 10 1 11 2
M  V30 11 1 12 3
M  V30 12 1 13 3
M  V30 13 1 14 3
M  V30 14 1 15 6
M  V30 15 1 16 6
M  V30 16 1 17 6
M  V30 17 1 18 4
M  V30 18 1 19 1
M  V30 END BOND
M  V30 END CTAB
M  END
$$$$
R-group 503 (1848-1)
     RDKit          3D

  0  0  0  0  0  0  0  0  0  0999 V3000
M  V30 BEGIN CTAB
M  V30 COUNTS 12 11 0 0 1
M  V30 BEGIN ATOM
M  V30 1 C 74.289900 54.841600 42.259800 0
M  V30 2 C 73.854500 55.880100 41.221900 0
M  V30 3 C 73.672200 57.258000 41.811500 0
M  V30 4 N 72.872300 58.058000 41.109200 0
M  V30 5 O 74.072300 57.562500 42.924700 0
M  V30 6 H 74.017900 55.138100 43.274600 0
M  V30 7 H 75.381500 54.833600 42.249600 0
M  V30 8 H 74.552300 55.927200 40.385800 0
M  V30 9 H 72.878000 55.621700 40.818000 0
M  V30 10 H 72.518100 57.765000 40.211600 0
M  V30 11 H 72.647500 58.967900 41.482200 0
M  V30 12 R 73.740300 53.417100 42.047700 0
M  V30 END ATOM
M  V30 BEGIN BOND
M  V30 1 1 2 1
M  V30 2 1 3 2
M  V30 3 1 4 3
M  V30 4 2 5 3
M  V30 5 1 6 1
M  V30 6 1 7 1
M  V30 7 1 8 2
M  V30 8 1 9 2
M  V30 9 1 10 4
M  V30 10 1 11 4
M  V30 11 1 12 1
M  V30 END BOND
M  V30 END CTAB
M  END
$$$$
R-group 504 (12888-1)
     RDKit          3D

  0  0  0  0  0  0  0  0  0  0999 V3000
M  V30 BEGIN CTAB
M  V30 COUNTS 23 22 0 0 1
M  V30 BEGIN ATOM
M  V30 1 C 76.190100 57.354500 40.492800 0
M  V30 2 C 76.450300 57.182400 41.961800 0
M  V30 3 C 75.635000 56.072400 42.609600 0 CFG=1
M  V30 4 C 76.085000 55.980200 44.081800 0
M  V30 5 C 74.103700 56.218500 42.358700 0 CFG=2
M  V30 6 C 73.460700 57.442500 43.036800 0
M  V30 7 C 73.381900 54.929400 42.750700 0
M  V30 8 H 76.899700 58.047000 40.038700 0
M  V30 9 H 75.178900 57.658000 40.245000 0
M  V30 10 H 76.346400 56.350100 40.121800 0
M  V30 11 H 77.476000 56.923700 41.952900 0
M  V30 12 H 76.472300 58.058000 42.580000 0
M  V30 13 H 75.933700 55.149000 42.120100 0
M  V30 14 H 76.072300 56.973700 44.524700 0
M  V30 15 H 75.529900 55.281900 44.705900 0
M  V30 16 H 77.120400 55.657500 44.144900 0
M  V30 17 H 73.903700 56.371900 41.304800 0
M  V30 18 H 73.272200 57.279000 44.096200 0
M  V30 19 H 74.072200 58.334200 42.924700 0
M  V30 20 H 72.497800 57.669900 42.580600 0
M  V30 21 H 73.799600 54.785600 43.724400 0
M  V30 22 H 72.320600 55.107600 42.924700 0
M  V30 23 R 73.571800 53.624100 41.916000 0
M  V30 END ATOM
M  V30 BEGIN BOND
M  V30 1 1 2 1
M  V30 2 1 3 2
M  V30 3 1 4 3
M  V30 4 1 5 3
M  V30 5 1 6 5
M  V30 6 1 7 5
M  V30 7 1 8 1
M  V30 8 1 9 1
M  V30 9 1 10 1
M  V30 10 1 11 2
M  V30 11 1 12 2
M  V30 12 1 3 13 CFG=3
M  V30 13 1 14 4
M  V30 14 1 15 4
M  V30 15 1 16 4
M  V30 16 1 5 17 CFG=3
M  V30 17 1 18 6
M  V30 18 1 19 6
M  V30 19 1 20 6
M  V30 20 1 21 7
M  V30 21 1 22 7
M  V30 22 1 23 7
M  V30 END BOND
M  V30 END CTAB
M  END
$$$$
R-group 505 (11328-1)
     RDKit          3D

  0  0  0  0  0  0  0  0  0  0999 V3000
M  V30 BEGIN CTAB
M  V30 COUNTS 16 15 0 0 1
M  V30 BEGIN ATOM
M  V30 1 C 74.819000 57.181600 39.693900 0
M  V30 2 O 73.869500 56.164300 39.820900 0
M  V30 3 C 72.872300 56.469900 40.756500 0
M  V30 4 C 73.286600 56.158400 42.229500 0 CFG=2
M  V30 5 O 73.791500 57.350600 42.767600 0
M  V30 6 C 74.322900 55.040400 42.381400 0
M  V30 7 H 75.672200 56.650700 39.325900 0
M  V30 8 H 74.498800 57.926900 38.961400 0
M  V30 9 H 75.116300 57.645500 40.635600 0
M  V30 10 H 72.073100 55.811400 40.426100 0
M  V30 11 H 72.485500 57.484000 40.632700 0
M  V30 12 H 72.472200 55.922600 42.924700 0
M  V30 13 H 74.713900 55.136100 43.394800 0
M  V30 14 H 75.188800 55.216900 41.744000 0
M  V30 15 H 73.973400 57.211000 43.684300 0
M  V30 16 R 73.785900 53.595100 42.200400 0
M  V30 END ATOM
M  V30 BEGIN BOND
M  V30 1 1 2 1
M  V30 2 1 3 2
M  V30 3 1 4 3
M  V30 4 1 5 4
M  V30 5 1 6 4
M  V30 6 1 7 1
M  V30 7 1 8 1
M  V30 8 1 9 1
M  V30 9 1 10 3
M  V30 10 1 11 3
M  V30 11 1 4 12 CFG=1
M  V30 12 1 13 6
M  V30 13 1 14 6
M  V30 14 1 15 5
M  V30 15 1 16 6
M  V30 END BOND
M  V30 END CTAB
M  END
$$$$
R-group 506 (39593-2)
     RDKit          3D

  0  0  0  0  0  0  0  0  0  0999 V3000
M  V30 BEGIN CTAB
M  V30 COUNTS 16 15 0 0 1
M  V30 BEGIN ATOM
M  V30 1 C 74.891400 55.277100 42.100300 0 CFG=2
M  V30 2 O 75.440700 55.658000 43.324700 0
M  V30 3 C 74.072200 56.497500 41.666800 0
M  V30 4 O 73.555100 57.196400 42.542400 0
M  V30 5 N 73.914400 56.775500 40.362700 0
M  V30 6 C 74.826400 56.357200 39.324800 0
M  V30 7 C 72.872300 57.658000 39.889700 0
M  V30 8 H 75.748600 55.112300 41.456300 0
M  V30 9 H 75.835000 56.262600 39.724700 0
M  V30 10 H 74.472300 55.434500 38.871400 0
M  V30 11 H 74.866900 57.089900 38.526600 0
M  V30 12 H 72.072300 57.789400 40.608900 0
M  V30 13 H 73.272400 58.647000 39.674400 0
M  V30 14 H 72.444700 57.257700 38.971100 0
M  V30 15 H 74.741200 56.088000 43.799200 0
M  V30 16 R 74.089100 53.935100 42.239100 0
M  V30 END ATOM
M  V30 BEGIN BOND
M  V30 1 1 2 1
M  V30 2 1 3 1
M  V30 3 2 4 3
M  V30 4 1 5 3
M  V30 5 1 6 5
M  V30 6 1 7 5
M  V30 7 1 1 8 CFG=3
M  V30 8 1 9 6
M  V30 9 1 10 6
M  V30 10 1 11 6
M  V30 11 1 12 7
M  V30 12 1 13 7
M  V30 13 1 14 7
M  V30 14 1 15 2
M  V30 15 1 16 1
M  V30 END BOND
M  V30 END CTAB
M  END
$$$$
R-group 507 (41273-2)
     RDKit          3D

  0  0  0  0  0  0  0  0  0  0999 V3000
M  V30 BEGIN CTAB
M  V30 COUNTS 14 13 0 0 1
M  V30 BEGIN ATOM
M  V30 1 C 74.042900 55.073400 41.681500 0
M  V30 2 F 73.625100 55.585700 42.839900 0
M  V30 3 F 75.376700 55.163400 41.681300 0
M  V30 4 C 73.550700 55.961200 40.476500 0
M  V30 5 F 74.282400 55.669000 39.402800 0
M  V30 6 F 72.274500 55.775600 40.124700 0
M  V30 7 C 73.766500 57.465200 40.702200 0
M  V30 8 F 74.974500 57.655600 41.245000 0
M  V30 9 F 73.680700 58.059900 39.509600 0
M  V30 10 C 72.740300 58.150700 41.601500 0
M  V30 11 F 73.216300 59.258100 42.124200 0
M  V30 12 F 71.676900 58.498300 40.879500 0
M  V30 13 H 72.472500 57.541200 42.455600 0
M  V30 14 R 73.662500 53.562000 41.710200 0
M  V30 END ATOM
M  V30 BEGIN BOND
M  V30 1 1 2 1
M  V30 2 1 3 1
M  V30 3 1 4 1
M  V30 4 1 5 4
M  V30 5 1 6 4
M  V30 6 1 7 4
M  V30 7 1 8 7
M  V30 8 1 9 7
M  V30 9 1 10 7
M  V30 10 1 11 10
M  V30 11 1 12 10
M  V30 12 1 13 10
M  V30 13 1 14 1
M  V30 END BOND
M  V30 END CTAB
M  END
$$$$
R-group 508 (40429-1)
     RDKit          3D

  0  0  0  0  0  0  0  0  0  0999 V3000
M  V30 BEGIN CTAB
M  V30 COUNTS 21 20 0 0 1
M  V30 BEGIN ATOM
M  V30 1 N 72.967000 54.163500 42.158300 0
M  V30 2 S 74.473700 55.008600 42.147700 0
M  V30 3 O 74.972700 55.139500 43.526900 0
M  V30 4 O 75.266800 54.432500 41.078400 0
M  V30 5 N 74.055400 56.480700 41.540400 0
M  V30 6 C 73.384100 57.387100 42.509700 0
M  V30 7 C 73.647300 56.411300 40.119700 0
M  V30 8 C 74.835300 56.719900 39.245100 0
M  V30 9 C 72.517800 57.279400 39.770100 0
M  V30 10 H 72.465800 56.939600 42.841100 0
M  V30 11 H 74.064600 57.492100 43.380700 0
M  V30 12 H 73.253000 58.419800 42.112300 0
M  V30 13 H 73.313300 55.409000 39.876600 0
M  V30 14 H 74.586300 56.587300 38.176700 0
M  V30 15 H 75.179400 57.736200 39.296300 0
M  V30 16 H 75.671400 56.121500 39.547200 0
M  V30 17 H 72.249400 57.226900 38.721500 0
M  V30 18 H 71.672200 56.977600 40.348200 0
M  V30 19 H 72.840900 58.284100 40.008500 0
M  V30 20 H 72.456400 54.347900 43.039300 0
M  V30 21 R 73.088800 52.709100 41.977400 0
M  V30 END ATOM
M  V30 BEGIN BOND
M  V30 1 1 2 1
M  V30 2 2 3 2
M  V30 3 2 4 2
M  V30 4 1 5 2
M  V30 5 1 6 5
M  V30 6 1 7 5
M  V30 7 1 8 7
M  V30 8 1 9 7
M  V30 9 1 10 6
M  V30 10 1 11 6
M  V30 11 1 12 6
M  V30 12 1 13 7
M  V30 13 1 14 8
M  V30 14 1 15 8
M  V30 15 1 16 8
M  V30 16 1 17 9
M  V30 17 1 18 9
M  V30 18 1 19 9
M  V30 19 1 20 1
M  V30 20 1 21 1
M  V30 END BOND
M  V30 END CTAB
M  END
$$$$
R-group 509 (21461-1)
     RDKit          3D

  0  0  0  0  0  0  0  0  0  0999 V3000
M  V30 BEGIN CTAB
M  V30 COUNTS 18 18 0 0 1
M  V30 BEGIN ATOM
M  V30 1 C 73.616000 54.303000 41.777200 0
M  V30 2 C 74.953200 55.041400 41.925100 0
M  V30 3 S 75.096200 56.786700 41.318300 0
M  V30 4 C 73.896700 57.755500 42.321800 0
M  V30 5 O 76.458000 57.257500 41.630700 0
M  V30 6 O 74.618500 56.856700 39.929400 0
M  V30 7 C 72.471800 54.857900 41.002800 0
M  V30 8 C 72.472100 54.846000 42.524800 0
M  V30 9 H 75.273600 55.028900 42.966700 0
M  V30 10 H 75.675300 54.492400 41.346100 0
M  V30 11 H 74.012800 58.811200 42.110500 0
M  V30 12 H 72.877200 57.516800 42.032800 0
M  V30 13 H 74.062200 57.574100 43.378300 0
M  V30 14 H 72.551100 55.818600 40.509200 0
M  V30 15 H 71.689100 54.221900 40.594700 0
M  V30 16 H 71.742100 54.163400 42.960900 0
M  V30 17 H 72.639700 55.729700 43.124800 0
M  V30 18 R 73.672900 52.803800 41.744200 0
M  V30 END ATOM
M  V30 BEGIN BOND
M  V30 1 1 2 1
M  V30 2 1 3 2
M  V30 3 1 4 3
M  V30 4 2 5 3
M  V30 5 2 6 3
M  V30 6 1 7 1
M  V30 7 1 8 1
M  V30 8 1 8 7
M  V30 9 1 9 2
M  V30 10 1 10 2
M  V30 11 1 11 4
M  V30 12 1 12 4
M  V30 13 1 13 4
M  V30 14 1 14 7
M  V30 15 1 15 7
M  V30 16 1 16 8
M  V30 17 1 17 8
M  V30 18 1 18 1
M  V30 END BOND
M  V30 END CTAB
M  END
$$$$
R-group 510 (43433-1)
     RDKit          3D

  0  0  0  0  0  0  0  0  0  0999 V3000
M  V30 BEGIN CTAB
M  V30 COUNTS 18 18 0 0 1
M  V30 BEGIN ATOM
M  V30 1 C 74.680900 55.330500 42.491800 0
M  V30 2 C 73.952100 56.529300 41.965800 0
M  V30 3 C 73.481300 57.668700 42.643100 0
M  V30 4 N 72.868500 58.448400 41.740300 0
M  V30 5 C 72.019400 59.630600 41.874800 0
M  V30 6 N 72.873600 57.876600 40.535100 0
M  V30 7 C 73.717300 56.865500 40.637200 0
M  V30 8 C 74.356500 56.344600 39.386700 0
M  V30 9 H 74.854500 55.473500 43.562900 0
M  V30 10 H 75.678100 55.274900 42.025200 0
M  V30 11 H 73.561700 57.914500 43.670100 0
M  V30 12 H 71.805100 59.837000 42.922000 0
M  V30 13 H 72.472200 60.513000 41.442100 0
M  V30 14 H 71.082300 59.459500 41.343600 0
M  V30 15 H 73.907600 55.444000 38.968800 0
M  V30 16 H 74.468800 57.091000 38.622200 0
M  V30 17 H 75.387200 56.103500 39.628700 0
M  V30 18 R 73.987300 53.941700 42.323600 0
M  V30 END ATOM
M  V30 BEGIN BOND
M  V30 1 1 2 1
M  V30 2 2 3 2
M  V30 3 1 4 3
M  V30 4 1 5 4
M  V30 5 1 6 4
M  V30 6 1 7 2
M  V30 7 2 7 6
M  V30 8 1 8 7
M  V30 9 1 9 1
M  V30 10 1 10 1
M  V30 11 1 11 3
M  V30 12 1 12 5
M  V30 13 1 13 5
M  V30 14 1 14 5
M  V30 15 1 15 8
M  V30 16 1 16 8
M  V30 17 1 17 8
M  V30 18 1 18 1
M  V30 END BOND
M  V30 END CTAB
M  END
$$$$
R-group 511 (5035-1)
     RDKit          3D

  0  0  0  0  0  0  0  0  0  0999 V3000
M  V30 BEGIN CTAB
M  V30 COUNTS 18 17 0 0 1
M  V30 BEGIN ATOM
M  V30 1 C 75.984000 57.258400 40.214700 0
M  V30 2 C 74.556900 57.117400 39.627300 0
M  V30 3 O 73.712800 56.434300 40.529900 0
M  V30 4 C 73.386800 57.145900 41.717100 0
M  V30 5 C 73.272700 56.156400 42.886800 0
M  V30 6 C 74.358700 55.080600 42.902000 0
M  V30 7 H 76.542700 58.057500 39.725600 0
M  V30 8 H 76.012600 57.519800 41.268700 0
M  V30 9 H 76.542300 56.328800 40.125000 0
M  V30 10 H 74.608700 56.524900 38.714000 0
M  V30 11 H 74.079900 58.053600 39.331300 0
M  V30 12 H 72.471800 57.706000 41.562100 0
M  V30 13 H 74.116300 57.906700 41.982400 0
M  V30 14 H 72.334200 55.623400 42.925400 0
M  V30 15 H 73.273300 56.728200 43.812000 0
M  V30 16 H 74.735800 55.068100 43.923800 0
M  V30 17 H 75.220500 55.369200 42.301300 0
M  V30 18 R 73.847400 53.660200 42.507800 0
M  V30 END ATOM
M  V30 BEGIN BOND
M  V30 1 1 2 1
M  V30 2 1 3 2
M  V30 3 1 4 3
M  V30 4 1 5 4
M  V30 5 1 6 5
M  V30 6 1 7 1
M  V30 7 1 8 1
M  V30 8 1 9 1
M  V30 9 1 10 2
M  V30 10 1 11 2
M  V30 11 1 12 4
M  V30 12 1 13 4
M  V30 13 1 14 5
M  V30 14 1 15 5
M  V30 15 1 16 6
M  V30 16 1 17 6
M  V30 17 1 18 6
M  V30 END BOND
M  V30 END CTAB
M  END
$$$$
R-group 512 (43520-2)
     RDKit          3D

  0  0  0  0  0  0  0  0  0  0999 V3000
M  V30 BEGIN CTAB
M  V30 COUNTS 16 15 0 0 1
M  V30 BEGIN ATOM
M  V30 1 C 74.269900 55.719200 43.011400 0 CFG=1
M  V30 2 C 75.684900 56.336000 42.991800 0
M  V30 3 O 76.072200 56.817700 41.724700 0
M  V30 4 C 73.212500 56.842400 42.930600 0
M  V30 5 C 73.055200 57.580200 41.571200 0
M  V30 6 O 72.471700 58.857700 41.725200 0
M  V30 7 H 74.160300 55.445600 44.057000 0
M  V30 8 H 75.682500 57.188900 43.670100 0
M  V30 9 H 76.431500 55.658100 43.392500 0
M  V30 10 H 72.291900 56.418600 43.323900 0
M  V30 11 H 73.464500 57.589400 43.686600 0
M  V30 12 H 74.002700 57.750000 41.073000 0
M  V30 13 H 72.472600 57.002900 40.859500 0
M  V30 14 H 76.915200 57.239900 41.803300 0
M  V30 15 H 73.107900 59.422300 42.145900 0
M  V30 16 R 74.000300 54.361800 42.229200 0
M  V30 END ATOM
M  V30 BEGIN BOND
M  V30 1 1 2 1
M  V30 2 1 3 2
M  V30 3 1 4 1
M  V30 4 1 5 4
M  V30 5 1 6 5
M  V30 6 1 1 7 CFG=1
M  V30 7 1 8 2
M  V30 8 1 9 2
M  V30 9 1 10 4
M  V30 10 1 11 4
M  V30 11 1 12 5
M  V30 12 1 13 5
M  V30 13 1 14 3
M  V30 14 1 15 6
M  V30 15 1 16 1
M  V30 END BOND
M  V30 END CTAB
M  END
$$$$
R-group 513 (10840-1)
     RDKit          3D

  0  0  0  0  0  0  0  0  0  0999 V3000
M  V30 BEGIN CTAB
M  V30 COUNTS 13 13 0 0 1
M  V30 BEGIN ATOM
M  V30 1 C 74.917100 54.835900 42.350200 0
M  V30 2 C 74.281100 56.045300 41.768600 0
M  V30 3 C 73.678100 56.998700 42.597400 0
M  V30 4 C 73.038000 58.058000 41.962100 0
M  V30 5 N 72.872300 58.058000 40.628800 0
M  V30 6 N 73.475700 57.186700 39.826700 0
M  V30 7 C 74.227200 56.232900 40.377800 0
M  V30 8 H 75.199700 55.050900 43.382200 0
M  V30 9 H 75.846100 54.688900 41.805500 0
M  V30 10 H 73.673100 56.917200 43.670300 0
M  V30 11 H 72.528000 58.826300 42.524500 0
M  V30 12 H 74.711500 55.582000 39.675500 0
M  V30 13 R 74.027500 53.575200 42.266200 0
M  V30 END ATOM
M  V30 BEGIN BOND
M  V30 1 1 2 1
M  V30 2 2 3 2
M  V30 3 1 4 3
M  V30 4 2 5 4
M  V30 5 1 6 5
M  V30 6 1 7 2
M  V30 7 2 7 6
M  V30 8 1 8 1
M  V30 9 1 9 1
M  V30 10 1 10 3
M  V30 11 1 11 4
M  V30 12 1 12 7
M  V30 13 1 13 1
M  V30 END BOND
M  V30 END CTAB
M  END
$$$$
R-group 514 (8030-2)
     RDKit          3D

  0  0  0  0  0  0  0  0  0  0999 V3000
M  V30 BEGIN CTAB
M  V30 COUNTS 17 17 0 0 1
M  V30 BEGIN ATOM
M  V30 1 C 74.673200 55.121100 41.811900 0 CFG=2
M  V30 2 C 75.371800 55.829400 43.013500 0
M  V30 3 C 75.225000 57.329800 42.813600 0
M  V30 4 S 73.480900 57.335900 42.453600 0
M  V30 5 O 72.873000 58.458000 41.725400 0
M  V30 6 O 72.872200 56.858100 43.696100 0
M  V30 7 N 73.672300 56.067800 41.327100 0
M  V30 8 C 73.813400 56.446700 39.910800 0
M  V30 9 H 75.455100 55.007200 41.063100 0
M  V30 10 H 74.931300 55.513400 43.955200 0
M  V30 11 H 76.417800 55.658800 43.098300 0
M  V30 12 H 75.452200 57.917400 43.706400 0
M  V30 13 H 75.793700 57.658000 41.943500 0
M  V30 14 H 73.855600 55.569100 39.267300 0
M  V30 15 H 72.957500 57.042600 39.591700 0
M  V30 16 H 74.717600 57.035400 39.759100 0
M  V30 17 R 73.964900 53.759300 42.066100 0
M  V30 END ATOM
M  V30 BEGIN BOND
M  V30 1 1 2 1
M  V30 2 1 3 2
M  V30 3 1 4 3
M  V30 4 2 5 4
M  V30 5 2 6 4
M  V30 6 1 7 1
M  V30 7 1 7 4
M  V30 8 1 8 7
M  V30 9 1 1 9 CFG=3
M  V30 10 1 10 2
M  V30 11 1 11 2
M  V30 12 1 12 3
M  V30 13 1 13 3
M  V30 14 1 14 8
M  V30 15 1 15 8
M  V30 16 1 16 8
M  V30 17 1 17 1
M  V30 END BOND
M  V30 END CTAB
M  END
$$$$
R-group 515 (10720-2)
     RDKit          3D

  0  0  0  0  0  0  0  0  0  0999 V3000
M  V30 BEGIN CTAB
M  V30 COUNTS 15 14 0 0 1
M  V30 BEGIN ATOM
M  V30 1 C 73.672400 54.820500 41.829500 0
M  V30 2 O 74.018600 55.369700 42.869000 0
M  V30 3 N 73.596800 55.487100 40.662500 0
M  V30 4 C 74.183200 56.804100 40.418200 0 CFG=1
M  V30 5 C 73.157200 57.903300 40.758700 0
M  V30 6 C 75.589100 56.868200 41.087300 0
M  V30 7 F 76.472300 57.658000 40.524700 0
M  V30 8 F 75.585400 57.217200 42.371200 0
M  V30 9 F 76.072500 55.662700 40.924800 0
M  V30 10 H 74.340200 56.832900 39.339800 0
M  V30 11 H 73.271800 58.800500 40.155500 0
M  V30 12 H 72.149100 57.561000 40.524900 0
M  V30 13 H 73.179600 58.168900 41.815600 0
M  V30 14 H 73.303200 54.965600 39.849900 0
M  V30 15 R 73.439400 53.308200 41.841700 0
M  V30 END ATOM
M  V30 BEGIN BOND
M  V30 1 2 2 1
M  V30 2 1 3 1
M  V30 3 1 4 3
M  V30 4 1 5 4
M  V30 5 1 6 4
M  V30 6 1 7 6
M  V30 7 1 8 6
M  V30 8 1 9 6
M  V30 9 1 4 10 CFG=3
M  V30 10 1 11 5
M  V30 11 1 12 5
M  V30 12 1 13 5
M  V30 13 1 14 3
M  V30 14 1 15 1
M  V30 END BOND
M  V30 END CTAB
M  END
$$$$
R-group 516 (8892-1)
     RDKit          3D

  0  0  0  0  0  0  0  0  0  0999 V3000
M  V30 BEGIN CTAB
M  V30 COUNTS 17 17 0 0 1
M  V30 BEGIN ATOM
M  V30 1 C 74.353700 54.889200 42.763000 0
M  V30 2 C 73.387600 55.993400 42.396100 0
M  V30 3 N 74.056600 57.244700 42.076800 0
M  V30 4 C 73.101300 58.170400 41.464100 0
M  V30 5 C 73.571000 57.670200 40.086000 0
M  V30 6 F 72.858100 56.667700 39.569800 0
M  V30 7 C 74.824800 57.176100 40.825700 0
M  V30 8 H 74.527900 54.978400 43.835300 0
M  V30 9 H 75.335000 55.026200 42.311000 0
M  V30 10 H 72.872300 55.658300 41.519700 0
M  V30 11 H 72.654700 56.134200 43.192700 0
M  V30 12 H 72.072200 57.981700 41.742300 0
M  V30 13 H 73.380100 59.188100 41.724700 0
M  V30 14 H 73.672200 58.451400 39.330200 0
M  V30 15 H 75.672400 57.855700 40.924400 0
M  V30 16 H 75.141700 56.170800 40.559300 0
M  V30 17 R 73.818300 53.488200 42.384000 0
M  V30 END ATOM
M  V30 BEGIN BOND
M  V30 1 1 2 1
M  V30 2 1 3 2
M  V30 3 1 4 3
M  V30 4 1 5 4
M  V30 5 1 6 5
M  V30 6 1 7 3
M  V30 7 1 7 5
M  V30 8 1 8 1
M  V30 9 1 9 1
M  V30 10 1 10 2
M  V30 11 1 11 2
M  V30 12 1 12 4
M  V30 13 1 13 4
M  V30 14 1 14 5
M  V30 15 1 15 7
M  V30 16 1 16 7
M  V30 17 1 17 1
M  V30 END BOND
M  V30 END CTAB
M  END
$$$$
R-group 517 (3318-2)
     RDKit          3D

  0  0  0  0  0  0  0  0  0  0999 V3000
M  V30 BEGIN CTAB
M  V30 COUNTS 19 19 0 0 1
M  V30 BEGIN ATOM
M  V30 1 N 74.405900 54.914700 42.044300 0
M  V30 2 C 73.272100 55.758100 41.788300 0
M  V30 3 C 73.430500 57.282600 41.803700 0
M  V30 4 O 74.185200 57.658100 42.924600 0
M  V30 5 C 75.402800 56.920900 43.082500 0 CFG=2
M  V30 6 C 76.462600 57.189900 41.980800 0
M  V30 7 O 76.033500 56.854800 40.690700 0
M  V30 8 C 75.051500 55.429800 43.250000 0
M  V30 9 H 72.836700 55.522200 40.823100 0
M  V30 10 H 72.542800 55.505300 42.564100 0
M  V30 11 H 73.836200 57.666700 40.873700 0
M  V30 12 H 72.472300 57.781800 41.895400 0
M  V30 13 H 75.860700 57.258500 44.015000 0
M  V30 14 H 76.872500 58.189700 41.998100 0
M  V30 15 H 77.272300 56.496900 42.124500 0
M  V30 16 H 74.389500 55.295000 44.108100 0
M  V30 17 H 75.960400 54.887900 43.488200 0
M  V30 18 H 75.522400 56.053900 40.777900 0
M  V30 19 R 73.925900 53.516600 42.094800 0
M  V30 END ATOM
M  V30 BEGIN BOND
M  V30 1 1 2 1
M  V30 2 1 3 2
M  V30 3 1 4 3
M  V30 4 1 5 4
M  V30 5 1 6 5
M  V30 6 1 7 6
M  V30 7 1 8 1
M  V30 8 1 8 5
M  V30 9 1 9 2
M  V30 10 1 10 2
M  V30 11 1 11 3
M  V30 12 1 12 3
M  V30 13 1 5 13 CFG=1
M  V30 14 1 14 6
M  V30 15 1 15 6
M  V30 16 1 16 8
M  V30 17 1 17 8
M  V30 18 1 18 7
M  V30 19 1 19 1
M  V30 END BOND
M  V30 END CTAB
M  END
$$$$
R-group 518 (37686-4)
     RDKit          3D

  0  0  0  0  0  0  0  0  0  0999 V3000
M  V30 BEGIN CTAB
M  V30 COUNTS 19 19 0 0 1
M  V30 BEGIN ATOM
M  V30 1 C 73.997300 54.439800 42.816500 0 CFG=2
M  V30 2 C 72.895600 55.400600 42.524500 0
M  V30 3 C 73.236400 56.782800 43.039400 0
M  V30 4 C 74.630200 57.143100 42.530300 0 CFG=2
M  V30 5 C 74.663300 57.275400 40.994300 0
M  V30 6 C 75.664100 56.095700 42.925300 0
M  V30 7 O 75.245800 54.888400 42.321500 0
M  V30 8 H 74.110600 54.411700 43.887800 0
M  V30 9 H 72.872100 55.455800 41.441800 0
M  V30 10 H 71.960000 55.009800 42.925100 0
M  V30 11 H 72.510900 57.524300 42.703900 0
M  V30 12 H 73.196500 56.777600 44.124700 0
M  V30 13 H 74.872100 58.057900 43.048400 0
M  V30 14 H 74.545500 56.331800 40.463900 0
M  V30 15 H 73.855100 57.925500 40.655800 0
M  V30 16 H 75.629700 57.657700 40.667400 0
M  V30 17 H 75.765400 55.991800 44.006300 0
M  V30 18 H 76.639200 56.364300 42.525300 0
M  V30 19 R 73.680800 53.051500 42.270600 0
M  V30 END ATOM
M  V30 BEGIN BOND
M  V30 1 1 2 1
M  V30 2 1 3 2
M  V30 3 1 4 3
M  V30 4 1 5 4
M  V30 5 1 6 4
M  V30 6 1 7 1
M  V30 7 1 7 6
M  V30 8 1 1 8 CFG=1
M  V30 9 1 9 2
M  V30 10 1 10 2
M  V30 11 1 11 3
M  V30 12 1 12 3
M  V30 13 1 4 13 CFG=1
M  V30 14 1 14 5
M  V30 15 1 15 5
M  V30 16 1 16 5
M  V30 17 1 17 6
M  V30 18 1 18 6
M  V30 19 1 19 1
M  V30 END BOND
M  V30 END CTAB
M  END
$$$$
R-group 519 (42472-1)
     RDKit          3D

  0  0  0  0  0  0  0  0  0  0999 V3000
M  V30 BEGIN CTAB
M  V30 COUNTS 21 20 0 0 1
M  V30 BEGIN ATOM
M  V30 1 C 74.766100 56.457800 39.215800 0
M  V30 2 C 73.671600 56.857900 40.167100 0
M  V30 3 O 72.527100 56.856500 39.724700 0
M  V30 4 N 73.989200 57.257900 41.421600 0
M  V30 5 C 73.008500 57.900000 42.292000 0
M  V30 6 C 75.220700 56.894200 42.128000 0
M  V30 7 C 75.242700 55.388400 42.384800 0
M  V30 8 C 73.850400 54.788400 42.685800 0
M  V30 9 H 75.705500 56.255600 39.724100 0
M  V30 10 H 74.462300 55.583800 38.641500 0
M  V30 11 H 74.871900 57.288000 38.529800 0
M  V30 12 H 72.312400 58.554600 41.761900 0
M  V30 13 H 72.472400 57.148600 42.854600 0
M  V30 14 H 73.495900 58.456900 43.074900 0
M  V30 15 H 75.293400 57.392400 43.095300 0
M  V30 16 H 76.110100 57.228000 41.592500 0
M  V30 17 H 75.891800 55.215800 43.241900 0
M  V30 18 H 75.707600 54.891800 41.544900 0
M  V30 19 H 73.005500 55.242600 42.190900 0
M  V30 20 H 73.682800 55.046300 43.722500 0
M  V30 21 R 73.644300 53.325000 42.297100 0
M  V30 END ATOM
M  V30 BEGIN BOND
M  V30 1 1 2 1
M  V30 2 2 3 2
M  V30 3 1 4 2
M  V30 4 1 5 4
M  V30 5 1 6 4
M  V30 6 1 7 6
M  V30 7 1 8 7
M  V30 8 1 9 1
M  V30 9 1 10 1
M  V30 10 1 11 1
M  V30 11 1 12 5
M  V30 12 1 13 5
M  V30 13 1 14 5
M  V30 14 1 15 6
M  V30 15 1 16 6
M  V30 16 1 17 7
M  V30 17 1 18 7
M  V30 18 1 19 8
M  V30 19 1 20 8
M  V30 20 1 21 8
M  V30 END BOND
M  V30 END CTAB
M  END
$$$$
R-group 520 (3992-2)
     RDKit          3D

  0  0  0  0  0  0  0  0  0  0999 V3000
M  V30 BEGIN CTAB
M  V30 COUNTS 15 15 0 0 1
M  V30 BEGIN ATOM
M  V30 1 C 73.230300 54.336300 42.415600 0 CFG=2
M  V30 2 C 71.728600 54.457800 42.704200 0
M  V30 3 N 73.933800 55.423300 41.737600 0
M  V30 4 C 73.663600 56.026500 40.518600 0
M  V30 5 C 74.711300 56.855600 40.249000 0
M  V30 6 N 75.610300 56.849900 41.309600 0
M  V30 7 C 75.080800 55.983600 42.154700 0
M  V30 8 H 73.672400 54.420200 43.374300 0
M  V30 9 H 71.354600 53.647600 43.322700 0
M  V30 10 H 71.671600 55.366200 43.324900 0
M  V30 11 H 71.171100 54.457900 41.771200 0
M  V30 12 H 72.781800 55.790200 39.939400 0
M  V30 13 H 74.875400 57.466800 39.376300 0
M  V30 14 H 75.573600 55.711500 43.077900 0
M  V30 15 R 73.543400 52.956300 41.869100 0
M  V30 END ATOM
M  V30 BEGIN BOND
M  V30 1 1 2 1
M  V30 2 1 3 1
M  V30 3 1 4 3
M  V30 4 2 5 4
M  V30 5 1 6 5
M  V30 6 1 7 3
M  V30 7 2 7 6
M  V30 8 1 1 8 CFG=1
M  V30 9 1 9 2
M  V30 10 1 10 2
M  V30 11 1 11 2
M  V30 12 1 12 4
M  V30 13 1 13 5
M  V30 14 1 14 7
M  V30 15 1 15 1
M  V30 END BOND
M  V30 END CTAB
M  END
$$$$
R-group 521 (21559-1)
     RDKit          3D

  0  0  0  0  0  0  0  0  0  0999 V3000
M  V30 BEGIN CTAB
M  V30 COUNTS 17 17 0 0 1
M  V30 BEGIN ATOM
M  V30 1 N 73.187000 53.893500 41.626700 0
M  V30 2 C 72.473600 54.457700 40.567700 0
M  V30 3 C 71.249400 53.904900 40.122800 0
M  V30 4 C 70.438900 54.642700 39.254100 0
M  V30 5 C 70.854000 55.939800 38.932200 0
M  V30 6 N 72.040700 56.456200 39.324600 0
M  V30 7 C 72.872200 55.725000 40.090600 0
M  V30 8 C 74.047800 56.457000 40.623300 0
M  V30 9 N 74.095100 56.697600 41.938700 0
M  V30 10 O 74.870500 56.857700 39.837700 0
M  V30 11 H 74.000100 54.416500 41.935400 0
M  V30 12 H 70.884700 52.961700 40.502700 0
M  V30 13 H 69.488700 54.255000 38.917500 0
M  V30 14 H 70.242000 56.574500 38.307400 0
M  V30 15 H 73.343200 56.373600 42.535100 0
M  V30 16 H 74.861600 57.235100 42.317200 0
M  V30 17 R 73.398100 52.481500 41.649600 0
M  V30 END ATOM
M  V30 BEGIN BOND
M  V30 1 1 2 1
M  V30 2 2 3 2
M  V30 3 1 4 3
M  V30 4 2 5 4
M  V30 5 1 6 5
M  V30 6 1 7 2
M  V30 7 2 7 6
M  V30 8 1 8 7
M  V30 9 1 9 8
M  V30 10 2 10 8
M  V30 11 1 11 1
M  V30 12 1 12 3
M  V30 13 1 13 4
M  V30 14 1 14 5
M  V30 15 1 15 9
M  V30 16 1 16 9
M  V30 17 1 17 1
M  V30 END BOND
M  V30 END CTAB
M  END
$$$$
R-group 522 (3873-1)
     RDKit          3D

  0  0  0  0  0  0  0  0  0  0999 V3000
M  V30 BEGIN CTAB
M  V30 COUNTS 14 13 0 0 1
M  V30 BEGIN ATOM
M  V30 1 C 73.276000 56.198000 39.422300 0
M  V30 2 N 74.423500 56.857800 40.015300 0
M  V30 3 C 75.224700 56.536200 41.049200 0
M  V30 4 O 76.179200 57.255900 41.303800 0
M  V30 5 C 75.059000 55.277500 41.887100 0
M  V30 6 N 73.674600 54.840100 42.124700 0
M  V30 7 H 72.863100 56.856300 38.657600 0
M  V30 8 H 73.562200 55.280600 38.919600 0
M  V30 9 H 72.488700 56.006800 40.150100 0
M  V30 10 H 75.535700 55.437400 42.852600 0
M  V30 11 H 75.670300 54.533100 41.387400 0
M  V30 12 H 73.336700 55.165400 43.025900 0
M  V30 13 H 74.688000 57.709900 39.546600 0
M  V30 14 R 73.496500 53.395000 42.067200 0
M  V30 END ATOM
M  V30 BEGIN BOND
M  V30 1 1 2 1
M  V30 2 1 3 2
M  V30 3 2 4 3
M  V30 4 1 5 3
M  V30 5 1 6 5
M  V30 6 1 7 1
M  V30 7 1 8 1
M  V30 8 1 9 1
M  V30 9 1 10 5
M  V30 10 1 11 5
M  V30 11 1 12 6
M  V30 12 1 13 2
M  V30 13 1 14 6
M  V30 END BOND
M  V30 END CTAB
M  END
$$$$
R-group 523 (11498-1)
     RDKit          3D

  0  0  0  0  0  0  0  0  0  0999 V3000
M  V30 BEGIN CTAB
M  V30 COUNTS 20 20 0 0 1
M  V30 BEGIN ATOM
M  V30 1 C 73.755500 54.417100 42.835900 0
M  V30 2 O 74.731700 55.082600 42.085000 0
M  V30 3 C 74.393200 56.364800 41.634200 0
M  V30 4 C 73.785300 56.141800 40.253800 0
M  V30 5 C 73.447700 57.468000 39.632100 0
M  V30 6 O 72.549700 58.057400 40.555300 0
M  V30 7 C 72.979600 58.439000 41.848900 0
M  V30 8 C 73.505000 57.228600 42.595500 0
M  V30 9 H 72.753500 54.829800 42.900200 0
M  V30 10 H 74.219300 54.546600 43.814400 0
M  V30 11 H 75.344200 56.867600 41.503300 0
M  V30 12 H 74.486100 55.648900 39.573600 0
M  V30 13 H 72.873100 55.538800 40.321900 0
M  V30 14 H 74.320300 58.053800 39.365100 0
M  V30 15 H 72.920100 57.295400 38.706100 0
M  V30 16 H 73.693900 59.216400 41.812800 0
M  V30 17 H 72.143200 58.863100 42.415500 0
M  V30 18 H 72.571200 56.805500 42.992600 0
M  V30 19 H 74.142400 57.562500 43.411100 0
M  V30 20 R 73.547200 52.964900 42.400300 0
M  V30 END ATOM
M  V30 BEGIN BOND
M  V30 1 1 2 1
M  V30 2 1 3 2
M  V30 3 1 4 3
M  V30 4 1 5 4
M  V30 5 1 6 5
M  V30 6 1 7 6
M  V30 7 1 8 3
M  V30 8 1 8 7
M  V30 9 1 9 1
M  V30 10 1 10 1
M  V30 11 1 11 3
M  V30 12 1 12 4
M  V30 13 1 13 4
M  V30 14 1 14 5
M  V30 15 1 15 5
M  V30 16 1 16 7
M  V30 17 1 17 7
M  V30 18 1 18 8
M  V30 19 1 19 8
M  V30 20 1 20 1
M  V30 END BOND
M  V30 END CTAB
M  END
$$$$
R-group 524 (16150-1)
     RDKit          3D

  0  0  0  0  0  0  0  0  0  0999 V3000
M  V30 BEGIN CTAB
M  V30 COUNTS 12 12 0 0 1
M  V30 BEGIN ATOM
M  V30 1 N 73.272000 54.232500 42.123700 0
M  V30 2 C 74.246500 54.974700 41.603600 0
M  V30 3 O 75.272400 54.585400 41.092800 0
M  V30 4 C 73.873600 56.305400 41.425800 0
M  V30 5 C 73.527200 56.883100 40.258100 0
M  V30 6 N 72.872200 58.057900 40.534500 0
M  V30 7 C 72.872300 58.441400 41.811200 0
M  V30 8 S 73.672300 57.266900 42.841600 0
M  V30 9 H 73.551800 56.482100 39.256000 0
M  V30 10 H 72.419700 59.367000 42.130700 0
M  V30 11 H 72.464900 54.692800 42.509500 0
M  V30 12 R 73.241300 52.799800 42.061600 0
M  V30 END ATOM
M  V30 BEGIN BOND
M  V30 1 1 2 1
M  V30 2 2 3 2
M  V30 3 1 4 2
M  V30 4 2 5 4
M  V30 5 1 6 5
M  V30 6 2 7 6
M  V30 7 1 8 4
M  V30 8 1 8 7
M  V30 9 1 9 5
M  V30 10 1 10 7
M  V30 11 1 11 1
M  V30 12 1 12 1
M  V30 END BOND
M  V30 END CTAB
M  END
$$$$
R-group 525 (841-1)
     RDKit          3D

  0  0  0  0  0  0  0  0  0  0999 V3000
M  V30 BEGIN CTAB
M  V30 COUNTS 15 15 0 0 1
M  V30 BEGIN ATOM
M  V30 1 C 73.578300 54.722500 42.904600 0
M  V30 2 C 74.363200 55.695400 42.112000 0
M  V30 3 C 73.880700 56.125100 40.868500 0
M  V30 4 C 74.727400 56.857800 40.051300 0
M  V30 5 C 75.994800 57.251000 40.524800 0
M  V30 6 C 76.388200 56.951100 41.798200 0
M  V30 7 C 75.595800 56.159800 42.612000 0
M  V30 8 F 76.072100 55.819700 43.835700 0
M  V30 9 H 72.561400 55.112600 42.936000 0
M  V30 10 H 74.072300 54.769700 43.874600 0
M  V30 11 H 72.901000 55.849600 40.509900 0
M  V30 12 H 74.403500 57.153500 39.062400 0
M  V30 13 H 76.633700 57.857900 39.898000 0
M  V30 14 H 77.329500 57.335900 42.124400 0
M  V30 15 R 73.550200 53.274800 42.356700 0
M  V30 END ATOM
M  V30 BEGIN BOND
M  V30 1 1 2 1
M  V30 2 2 3 2
M  V30 3 1 4 3
M  V30 4 2 5 4
M  V30 5 1 6 5
M  V30 6 1 7 2
M  V30 7 2 7 6
M  V30 8 1 8 7
M  V30 9 1 9 1
M  V30 10 1 10 1
M  V30 11 1 11 3
M  V30 12 1 12 4
M  V30 13 1 13 5
M  V30 14 1 14 6
M  V30 15 1 15 1
M  V30 END BOND
M  V30 END CTAB
M  END
$$$$
R-group 526 (23995-1)
     RDKit          3D

  0  0  0  0  0  0  0  0  0  0999 V3000
M  V30 BEGIN CTAB
M  V30 COUNTS 17 16 0 0 1
M  V30 BEGIN ATOM
M  V30 1 S 74.872900 55.556300 42.214100 0
M  V30 2 O 75.660200 55.658100 43.450300 0
M  V30 3 O 75.536600 55.792500 40.926200 0
M  V30 4 N 73.672700 56.769200 42.372300 0
M  V30 5 C 73.197500 57.585800 41.239700 0 CFG=2
M  V30 6 C 72.307700 58.749700 41.726300 0
M  V30 7 C 72.564100 56.722500 40.128600 0
M  V30 8 O 73.571800 56.310500 39.244100 0
M  V30 9 H 74.051200 58.057800 40.808200 0
M  V30 10 H 71.675700 59.149500 40.931900 0
M  V30 11 H 71.672900 58.459100 42.548200 0
M  V30 12 H 72.872100 59.584700 42.123500 0
M  V30 13 H 72.072200 55.842300 40.505400 0
M  V30 14 H 71.809800 57.257900 39.562100 0
M  V30 15 H 73.670200 57.226000 43.284000 0
M  V30 16 H 74.344600 56.088800 39.758500 0
M  V30 17 R 73.955500 53.895500 42.210300 0
M  V30 END ATOM
M  V30 BEGIN BOND
M  V30 1 2 2 1
M  V30 2 2 3 1
M  V30 3 1 4 1
M  V30 4 1 5 4
M  V30 5 1 6 5
M  V30 6 1 7 5
M  V30 7 1 8 7
M  V30 8 1 5 9 CFG=3
M  V30 9 1 10 6
M  V30 10 1 11 6
M  V30 11 1 12 6
M  V30 12 1 13 7
M  V30 13 1 14 7
M  V30 14 1 15 4
M  V30 15 1 16 8
M  V30 16 1 17 1
M  V30 END BOND
M  V30 END CTAB
M  END
$$$$
R-group 527 (838-2)
     RDKit          3D

  0  0  0  0  0  0  0  0  0  0999 V3000
M  V30 BEGIN CTAB
M  V30 COUNTS 11 10 0 0 1
M  V30 BEGIN ATOM
M  V30 1 S 74.605700 55.168100 41.911600 0
M  V30 2 O 74.839500 55.657700 43.272800 0
M  V30 3 O 75.672200 55.259100 40.923700 0
M  V30 4 C 73.253400 56.014000 41.155400 0
M  V30 5 C 73.444700 56.356900 39.691800 0
M  V30 6 F 74.390300 57.257700 39.507900 0
M  V30 7 F 73.672100 55.299000 38.924800 0
M  V30 8 F 72.286500 56.857000 39.324800 0
M  V30 9 H 72.472500 55.257900 41.154700 0
M  V30 10 H 72.977700 56.876200 41.762500 0
M  V30 11 R 73.849400 53.472000 42.029400 0
M  V30 END ATOM
M  V30 BEGIN BOND
M  V30 1 2 2 1
M  V30 2 2 3 1
M  V30 3 1 4 1
M  V30 4 1 5 4
M  V30 5 1 6 5
M  V30 6 1 7 5
M  V30 7 1 8 5
M  V30 8 1 9 4
M  V30 9 1 10 4
M  V30 10 1 11 1
M  V30 END BOND
M  V30 END CTAB
M  END
$$$$
R-group 528 (3872-1)
     RDKit          3D

  0  0  0  0  0  0  0  0  0  0999 V3000
M  V30 BEGIN CTAB
M  V30 COUNTS 17 17 0 0 1
M  V30 BEGIN ATOM
M  V30 1 N 73.271800 54.457100 41.687700 0
M  V30 2 C 72.966200 55.151300 42.923800 0
M  V30 3 C 73.181600 56.664800 42.890600 0
M  V30 4 N 74.404100 56.853700 42.226400 0
M  V30 5 C 75.667300 56.857900 42.770900 0
M  V30 6 C 76.472100 57.042100 41.693000 0
M  V30 7 N 75.774100 56.857800 40.524700 0
M  V30 8 C 74.529300 56.858000 40.901700 0
M  V30 9 H 74.143500 54.798900 41.303700 0
M  V30 10 H 71.964100 54.903200 43.281300 0
M  V30 11 H 73.734100 54.821600 43.616600 0
M  V30 12 H 72.472300 57.252800 42.324800 0
M  V30 13 H 73.224700 57.089800 43.890500 0
M  V30 14 H 75.874600 56.839300 43.829000 0
M  V30 15 H 77.528700 57.257900 41.680900 0
M  V30 16 H 73.701000 56.763500 40.212200 0
M  V30 17 R 73.345500 53.020000 41.767900 0
M  V30 END ATOM
M  V30 BEGIN BOND
M  V30 1 1 2 1
M  V30 2 1 3 2
M  V30 3 1 4 3
M  V30 4 1 5 4
M  V30 5 2 6 5
M  V30 6 1 7 6
M  V30 7 1 8 4
M  V30 8 2 8 7
M  V30 9 1 9 1
M  V30 10 1 10 2
M  V30 11 1 11 2
M  V30 12 1 12 3
M  V30 13 1 13 3
M  V30 14 1 14 5
M  V30 15 1 15 6
M  V30 16 1 16 8
M  V30 17 1 17 1
M  V30 END BOND
M  V30 END CTAB
M  END
$$$$
R-group 529 (42985-1)
     RDKit          3D

  0  0  0  0  0  0  0  0  0  0999 V3000
M  V30 BEGIN CTAB
M  V30 COUNTS 17 17 0 0 1
M  V30 BEGIN ATOM
M  V30 1 O 73.578200 54.556300 41.553900 0
M  V30 2 C 73.358400 55.265300 42.730200 0
M  V30 3 C 73.983100 56.612000 42.589000 0
M  V30 4 C 75.461600 56.503400 42.507200 0
M  V30 5 N 76.067300 56.058700 43.616800 0
M  V30 6 O 76.072600 56.819600 41.494000 0
M  V30 7 C 73.356300 57.724100 41.802200 0
M  V30 8 C 73.404800 57.792600 43.298400 0
M  V30 9 H 72.291200 55.306100 42.926800 0
M  V30 10 H 73.872700 54.803600 43.554100 0
M  V30 11 H 75.521600 55.805300 44.423000 0
M  V30 12 H 74.012500 58.434700 41.324900 0
M  V30 13 H 72.469000 57.476800 41.247900 0
M  V30 14 H 72.487700 57.651600 43.870500 0
M  V30 15 H 74.159200 58.446700 43.707800 0
M  V30 16 H 77.067200 55.967200 43.622600 0
M  V30 17 R 73.400900 53.172000 41.714600 0
M  V30 END ATOM
M  V30 BEGIN BOND
M  V30 1 1 2 1
M  V30 2 1 3 2
M  V30 3 1 4 3
M  V30 4 1 5 4
M  V30 5 2 6 4
M  V30 6 1 7 3
M  V30 7 1 8 3
M  V30 8 1 8 7
M  V30 9 1 9 2
M  V30 10 1 10 2
M  V30 11 1 11 5
M  V30 12 1 12 7
M  V30 13 1 13 7
M  V30 14 1 14 8
M  V30 15 1 15 8
M  V30 16 1 16 5
M  V30 17 1 17 1
M  V30 END BOND
M  V30 END CTAB
M  END
$$$$
R-group 530 (40284-1)
     RDKit          3D

  0  0  0  0  0  0  0  0  0  0999 V3000
M  V30 BEGIN CTAB
M  V30 COUNTS 16 15 0 0 1
M  V30 BEGIN ATOM
M  V30 1 C 75.795000 57.208100 40.265600 0
M  V30 2 N 74.472300 56.856200 39.754500 0
M  V30 3 C 73.637900 55.957200 40.283700 0
M  V30 4 O 72.555900 55.782700 39.724700 0
M  V30 5 C 74.041700 55.166200 41.578100 0 CFG=1
M  V30 6 C 73.517600 55.864600 42.859900 0
M  V30 7 O 73.672900 57.267200 42.861400 0
M  V30 8 H 76.208000 58.057700 39.725600 0
M  V30 9 H 75.766900 57.484800 41.319400 0
M  V30 10 H 76.484700 56.373600 40.141700 0
M  V30 11 H 75.128600 55.184600 41.623100 0
M  V30 12 H 72.472600 55.636500 43.041100 0
M  V30 13 H 74.069500 55.489200 43.724100 0
M  V30 14 H 74.156600 57.336900 38.916700 0
M  V30 15 H 73.335000 57.602100 43.678800 0
M  V30 16 R 73.648300 53.637900 41.630100 0
M  V30 END ATOM
M  V30 BEGIN BOND
M  V30 1 1 2 1
M  V30 2 1 3 2
M  V30 3 2 4 3
M  V30 4 1 5 3
M  V30 5 1 6 5
M  V30 6 1 7 6
M  V30 7 1 8 1
M  V30 8 1 9 1
M  V30 9 1 10 1
M  V30 10 1 5 11 CFG=1
M  V30 11 1 12 6
M  V30 12 1 13 6
M  V30 13 1 14 2
M  V30 14 1 15 7
M  V30 15 1 16 5
M  V30 END BOND
M  V30 END CTAB
M  END
$$$$
R-group 531 (26941-1)
     RDKit          3D

  0  0  0  0  0  0  0  0  0  0999 V3000
M  V30 BEGIN CTAB
M  V30 COUNTS 18 17 0 0 1
M  V30 BEGIN ATOM
M  V30 1 C 72.877300 54.427300 42.333000 0
M  V30 2 C 73.429800 55.728500 41.808300 0
M  V30 3 O 73.403300 56.602900 42.922300 0
M  V30 4 C 74.308900 57.657800 42.796400 0
M  V30 5 C 75.769400 57.171700 42.884500 0
M  V30 6 C 76.555000 57.472400 41.608800 0
M  V30 7 F 76.073000 56.785700 40.582700 0
M  V30 8 H 71.788400 54.447700 42.406200 0
M  V30 9 H 73.263900 54.422600 43.324600 0
M  V30 10 H 74.443600 55.521300 41.489600 0
M  V30 11 H 72.877900 56.120300 40.945700 0
M  V30 12 H 74.081300 58.215500 41.885100 0
M  V30 13 H 74.106500 58.329200 43.623300 0
M  V30 14 H 76.247300 57.657800 43.724700 0
M  V30 15 H 75.826900 56.108200 43.118500 0
M  V30 16 H 76.473600 58.508200 41.324700 0
M  V30 17 H 77.611000 57.258000 41.721500 0
M  V30 18 R 73.411300 53.146700 41.696200 0
M  V30 END ATOM
M  V30 BEGIN BOND
M  V30 1 1 2 1
M  V30 2 1 3 2
M  V30 3 1 4 3
M  V30 4 1 5 4
M  V30 5 1 6 5
M  V30 6 1 7 6
M  V30 7 1 8 1
M  V30 8 1 9 1
M  V30 9 1 10 2
M  V30 10 1 11 2
M  V30 11 1 12 4
M  V30 12 1 13 4
M  V30 13 1 14 5
M  V30 14 1 15 5
M  V30 15 1 16 6
M  V30 16 1 17 6
M  V30 17 1 18 1
M  V30 END BOND
M  V30 END CTAB
M  END
$$$$
R-group 532 (3713-2)
     RDKit          3D

  0  0  0  0  0  0  0  0  0  0999 V3000
M  V30 BEGIN CTAB
M  V30 COUNTS 14 13 0 0 1
M  V30 BEGIN ATOM
M  V30 1 N 73.472400 55.147500 42.420600 0
M  V30 2 C 74.128400 56.390600 41.949700 0 CFG=1
M  V30 3 C 73.341700 57.654000 42.308600 0
M  V30 4 C 75.521000 56.469300 42.491800 0
M  V30 5 N 75.713900 55.815400 43.631200 0
M  V30 6 O 76.389300 57.061100 41.860300 0
M  V30 7 H 72.522700 55.277100 42.730200 0
M  V30 8 H 74.197300 56.474600 40.866600 0
M  V30 9 H 73.900500 58.542100 42.015500 0
M  V30 10 H 72.459900 57.665700 41.685100 0
M  V30 11 H 73.065300 57.750700 43.362100 0
M  V30 12 H 74.954900 55.269200 44.028500 0
M  V30 13 H 76.622600 55.851900 44.073500 0
M  V30 14 R 73.640100 53.874700 41.721300 0
M  V30 END ATOM
M  V30 BEGIN BOND
M  V30 1 1 2 1
M  V30 2 1 3 2
M  V30 3 1 4 2
M  V30 4 1 5 4
M  V30 5 2 6 4
M  V30 6 1 7 1
M  V30 7 1 2 8 CFG=3
M  V30 8 1 9 3
M  V30 9 1 10 3
M  V30 10 1 11 3
M  V30 11 1 12 5
M  V30 12 1 13 5
M  V30 13 1 14 1
M  V30 END BOND
M  V30 END CTAB
M  END
$$$$
R-group 533 (43922-2)
     RDKit          3D

  0  0  0  0  0  0  0  0  0  0999 V3000
M  V30 BEGIN CTAB
M  V30 COUNTS 21 22 0 0 1
M  V30 BEGIN ATOM
M  V30 1 O 73.770200 54.499100 42.432900 0
M  V30 2 C 73.522400 55.524600 41.516600 0 CFG=1
M  V30 3 C 73.394600 56.800300 42.335800 0
M  V30 4 C 73.634200 57.851400 41.279600 0
M  V30 5 C 74.778100 57.258100 40.425600 0 CFG=1
M  V30 6 O 76.072200 57.642400 40.924500 0
M  V30 7 C 76.560500 56.682400 41.770600 0
M  V30 8 C 76.072200 55.436800 41.057100 0
M  V30 9 C 74.683400 55.774100 40.550100 0 CFG=1
M  V30 10 H 72.619700 55.364800 40.924700 0
M  V30 11 H 72.472300 56.905000 42.887100 0
M  V30 12 H 74.160600 56.851900 43.103700 0
M  V30 13 H 72.737200 57.956100 40.666700 0
M  V30 14 H 73.824200 58.821000 41.725100 0
M  V30 15 H 74.687500 57.580600 39.385000 0
M  V30 16 H 77.606700 56.920600 41.724700 0
M  V30 17 H 76.217800 56.786400 42.796100 0
M  V30 18 H 76.072100 54.580600 41.724500 0
M  V30 19 H 76.699600 55.258200 40.179600 0
M  V30 20 H 74.465300 55.374000 39.563800 0
M  V30 21 R 73.519800 53.155200 42.084400 0
M  V30 END ATOM
M  V30 BEGIN BOND
M  V30 1 1 2 1
M  V30 2 1 3 2
M  V30 3 1 4 3
M  V30 4 1 5 4
M  V30 5 1 6 5
M  V30 6 1 7 6
M  V30 7 1 8 7
M  V30 8 1 9 2
M  V30 9 1 9 5
M  V30 10 1 9 8
M  V30 11 1 2 10 CFG=3
M  V30 12 1 11 3
M  V30 13 1 12 3
M  V30 14 1 13 4
M  V30 15 1 14 4
M  V30 16 1 5 15 CFG=3
M  V30 17 1 16 7
M  V30 18 1 17 7
M  V30 19 1 18 8
M  V30 20 1 19 8
M  V30 21 1 9 20 CFG=3
M  V30 22 1 21 1
M  V30 END BOND
M  V30 END CTAB
M  END
$$$$
R-group 534 (40231-1)
     RDKit          3D

  0  0  0  0  0  0  0  0  0  0999 V3000
M  V30 BEGIN CTAB
M  V30 COUNTS 19 19 0 0 1
M  V30 BEGIN ATOM
M  V30 1 C 72.872300 57.982700 40.124700 0
M  V30 2 C 73.372500 57.407600 41.414200 0
M  V30 3 O 73.272200 58.054500 42.450300 0
M  V30 4 N 73.810800 56.154700 41.338400 0
M  V30 5 C 74.214300 55.338000 42.462400 0 CFG=2
M  V30 6 C 75.672200 55.640700 42.739400 0
M  V30 7 C 76.067900 56.953800 43.373800 0
M  V30 8 C 76.302100 55.658100 44.124700 0
M  V30 9 H 73.672200 58.058600 39.387900 0
M  V30 10 H 72.103600 57.309100 39.731300 0
M  V30 11 H 72.472300 58.978700 40.321100 0
M  V30 12 H 73.655300 55.654000 43.345700 0
M  V30 13 H 76.286400 55.425600 41.868700 0
M  V30 14 H 76.872200 57.489500 42.878800 0
M  V30 15 H 75.281500 57.609400 43.724700 0
M  V30 16 H 75.671400 55.448600 44.981800 0
M  V30 17 H 77.327600 55.324100 44.255700 0
M  V30 18 H 73.831800 55.715200 40.430800 0
M  V30 19 R 73.834900 53.830400 42.202200 0
M  V30 END ATOM
M  V30 BEGIN BOND
M  V30 1 1 2 1
M  V30 2 2 3 2
M  V30 3 1 4 2
M  V30 4 1 5 4
M  V30 5 1 6 5
M  V30 6 1 7 6
M  V30 7 1 8 6
M  V30 8 1 8 7
M  V30 9 1 9 1
M  V30 10 1 10 1
M  V30 11 1 11 1
M  V30 12 1 5 12 CFG=1
M  V30 13 1 13 6
M  V30 14 1 14 7
M  V30 15 1 15 7
M  V30 16 1 16 8
M  V30 17 1 17 8
M  V30 18 1 18 4
M  V30 19 1 19 5
M  V30 END BOND
M  V30 END CTAB
M  END
$$$$
R-group 535 (31227-1)
     RDKit          3D

  0  0  0  0  0  0  0  0  0  0999 V3000
M  V30 BEGIN CTAB
M  V30 COUNTS 15 14 0 0 1
M  V30 BEGIN ATOM
M  V30 1 C 72.933800 57.257800 39.446200 0
M  V30 2 N 74.054800 56.436100 39.861300 0
M  V30 3 S 74.812400 56.857800 41.329100 0
M  V30 4 O 73.870400 57.652300 42.134600 0
M  V30 5 O 76.194600 57.258000 41.044600 0
M  V30 6 N 74.887700 55.316100 41.976600 0
M  V30 7 C 73.774700 54.765600 42.698900 0
M  V30 8 H 72.516000 56.873900 38.524800 0
M  V30 9 H 72.148200 57.247300 40.200900 0
M  V30 10 H 73.272900 58.284000 39.301900 0
M  V30 11 H 72.872300 55.357800 42.551000 0
M  V30 12 H 74.072200 54.855600 43.737600 0
M  V30 13 H 73.831300 55.442900 39.838900 0
M  V30 14 H 75.819700 55.009000 42.250100 0
M  V30 15 R 73.548400 53.316500 42.261000 0
M  V30 END ATOM
M  V30 BEGIN BOND
M  V30 1 1 2 1
M  V30 2 1 3 2
M  V30 3 2 4 3
M  V30 4 2 5 3
M  V30 5 1 6 3
M  V30 6 1 7 6
M  V30 7 1 8 1
M  V30 8 1 9 1
M  V30 9 1 10 1
M  V30 10 1 11 7
M  V30 11 1 12 7
M  V30 12 1 13 2
M  V30 13 1 14 6
M  V30 14 1 15 7
M  V30 END BOND
M  V30 END CTAB
M  END
$$$$
R-group 536 (7142-1)
     RDKit          3D

  0  0  0  0  0  0  0  0  0  0999 V3000
M  V30 BEGIN CTAB
M  V30 COUNTS 10 10 0 0 1
M  V30 BEGIN ATOM
M  V30 1 C 74.625300 55.455100 42.515900 0
M  V30 2 N 73.938300 56.647900 42.021400 0
M  V30 3 N 73.524100 57.655700 42.821500 0
M  V30 4 C 72.872100 58.395100 41.941500 0
M  V30 5 N 72.872800 57.873400 40.685300 0
M  V30 6 N 73.668400 56.859800 40.718900 0
M  V30 7 H 74.673600 55.526800 43.604300 0
M  V30 8 H 75.657900 55.513600 42.168500 0
M  V30 9 H 72.336800 59.291300 42.217700 0
M  V30 10 R 74.010300 54.071800 42.090200 0
M  V30 END ATOM
M  V30 BEGIN BOND
M  V30 1 1 2 1
M  V30 2 1 3 2
M  V30 3 2 4 3
M  V30 4 1 5 4
M  V30 5 1 6 2
M  V30 6 2 6 5
M  V30 7 1 7 1
M  V30 8 1 8 1
M  V30 9 1 9 4
M  V30 10 1 10 1
M  V30 END BOND
M  V30 END CTAB
M  END
$$$$
R-group 537 (4556-2)
     RDKit          3D

  0  0  0  0  0  0  0  0  0  0999 V3000
M  V30 BEGIN CTAB
M  V30 COUNTS 18 17 0 0 1
M  V30 BEGIN ATOM
M  V30 1 C 76.459200 57.652500 42.379900 0
M  V30 2 C 76.372400 56.183700 42.208000 0
M  V30 3 C 75.220200 55.729100 41.307500 0 CFG=2
M  V30 4 C 74.895800 56.579300 40.060400 0
M  V30 5 C 73.983800 55.694300 42.173500 0
M  V30 6 O 73.611400 56.672800 42.818600 0
M  V30 7 N 73.268200 54.579100 42.268200 0
M  V30 8 H 77.265800 58.040700 42.928100 0
M  V30 9 H 75.552700 57.783200 43.025200 0
M  V30 10 H 76.419700 58.094000 41.336000 0
M  V30 11 H 77.264300 56.057000 41.720200 0
M  V30 12 H 76.264300 55.796700 43.216800 0
M  V30 13 H 75.548600 54.725100 41.068400 0
M  V30 14 H 74.029600 56.198500 39.528600 0
M  V30 15 H 74.599900 57.589700 40.350300 0
M  V30 16 H 75.748400 56.536300 39.369900 0
M  V30 17 H 72.548300 54.677500 42.973500 0
M  V30 18 R 73.388500 53.276700 41.666700 0
M  V30 END ATOM
M  V30 BEGIN BOND
M  V30 1 1 2 1
M  V30 2 1 3 2
M  V30 3 1 4 3
M  V30 4 1 5 3
M  V30 5 2 6 5
M  V30 6 1 7 5
M  V30 7 1 8 1
M  V30 8 1 9 1
M  V30 9 1 10 1
M  V30 10 1 11 2
M  V30 11 1 12 2
M  V30 12 1 3 13 CFG=3
M  V30 13 1 14 4
M  V30 14 1 15 4
M  V30 15 1 16 4
M  V30 16 1 17 7
M  V30 17 1 18 7
M  V30 END BOND
M  V30 END CTAB
M  END
$$$$
R-group 538 (18166-1)
     RDKit          3D

  0  0  0  0  0  0  0  0  0  0999 V3000
M  V30 BEGIN CTAB
M  V30 COUNTS 24 23 0 0 1
M  V30 BEGIN ATOM
M  V30 1 O 73.211400 54.564900 41.913700 0
M  V30 2 C 72.871800 55.409900 40.834400 0
M  V30 3 C 72.959500 56.852100 41.301000 0
M  V30 4 C 74.276400 57.539200 41.032400 0
M  V30 5 C 75.536500 56.992300 41.670000 0
M  V30 6 C 75.853800 55.658000 41.068900 0
M  V30 7 C 75.455800 56.917700 43.207400 0
M  V30 8 C 76.792000 57.792400 41.247400 0
M  V30 9 H 71.834600 55.169700 40.524300 0
M  V30 10 H 73.465500 55.283000 39.892700 0
M  V30 11 H 72.758600 56.891600 42.381400 0
M  V30 12 H 72.177400 57.414800 40.792800 0
M  V30 13 H 74.065200 58.485700 41.487000 0
M  V30 14 H 74.365700 57.593800 39.960200 0
M  V30 15 H 76.565900 55.321800 41.717800 0
M  V30 16 H 76.278000 55.685200 40.107300 0
M  V30 17 H 75.163300 54.840000 41.115000 0
M  V30 18 H 75.269700 57.875900 43.699900 0
M  V30 19 H 74.673700 56.211400 43.501800 0
M  V30 20 H 76.384200 56.549000 43.645700 0
M  V30 21 H 76.872300 58.810900 41.555400 0
M  V30 22 H 77.659200 57.373400 41.707300 0
M  V30 23 H 76.946400 57.814500 40.167200 0
M  V30 24 R 73.237300 53.156200 41.753800 0
M  V30 END ATOM
M  V30 BEGIN BOND
M  V30 1 1 2 1
M  V30 2 1 3 2
M  V30 3 1 4 3
M  V30 4 1 5 4
M  V30 5 1 6 5
M  V30 6 1 7 5
M  V30 7 1 8 5
M  V30 8 1 9 2
M  V30 9 1 10 2
M  V30 10 1 11 3
M  V30 11 1 12 3
M  V30 12 1 13 4
M  V30 13 1 14 4
M  V30 14 1 15 6
M  V30 15 1 16 6
M  V30 16 1 17 6
M  V30 17 1 18 7
M  V30 18 1 19 7
M  V30 19 1 20 7
M  V30 20 1 21 8
M  V30 21 1 22 8
M  V30 22 1 23 8
M  V30 23 1 24 1
M  V30 END BOND
M  V30 END CTAB
M  END
$$$$
R-group 539 (15336-1)
     RDKit          3D

  0  0  0  0  0  0  0  0  0  0999 V3000
M  V30 BEGIN CTAB
M  V30 COUNTS 14 14 0 0 1
M  V30 BEGIN ATOM
M  V30 1 C 73.313100 54.497300 42.001000 0
M  V30 2 C 74.746900 55.013500 41.843000 0 CFG=1
M  V30 3 N 74.922800 56.000100 40.812200 0
M  V30 4 C 75.806700 56.889600 41.236400 0
M  V30 5 O 76.471800 57.656400 40.546700 0
M  V30 6 N 75.848300 56.857800 42.560500 0
M  V30 7 C 75.326800 55.737900 43.022300 0
M  V30 8 O 75.634200 55.257900 44.124000 0
M  V30 9 H 72.688800 54.897700 41.204800 0
M  V30 10 H 72.864400 54.857600 42.922700 0
M  V30 11 H 75.484800 54.260400 41.572600 0
M  V30 12 H 74.687100 55.855300 39.840300 0
M  V30 13 H 76.443300 57.465900 43.104600 0
M  V30 14 R 73.252000 52.964700 41.944300 0
M  V30 END ATOM
M  V30 BEGIN BOND
M  V30 1 1 2 1
M  V30 2 1 3 2
M  V30 3 1 4 3
M  V30 4 2 5 4
M  V30 5 1 6 4
M  V30 6 1 7 2
M  V30 7 1 7 6
M  V30 8 2 8 7
M  V30 9 1 9 1
M  V30 10 1 10 1
M  V30 11 1 2 11 CFG=3
M  V30 12 1 12 3
M  V30 13 1 13 6
M  V30 14 1 14 1
M  V30 END BOND
M  V30 END CTAB
M  END
$$$$
R-group 540 (16796-2)
     RDKit          3D

  0  0  0  0  0  0  0  0  0  0999 V3000
M  V30 BEGIN CTAB
M  V30 COUNTS 16 16 0 0 1
M  V30 BEGIN ATOM
M  V30 1 O 73.773400 54.525800 41.911000 0
M  V30 2 C 75.144500 54.908200 41.778000 0
M  V30 3 C 75.153600 56.404300 41.721100 0 CFG=2
M  V30 4 C 74.704000 56.932600 43.076200 0
M  V30 5 N 73.511400 57.656300 42.742100 0
M  V30 6 C 73.272500 57.676800 41.441500 0
M  V30 7 O 72.472300 58.446500 40.926400 0
M  V30 8 N 74.115900 56.858700 40.820900 0
M  V30 9 H 75.672500 54.612200 42.674000 0
M  V30 10 H 75.672000 54.506200 40.921400 0
M  V30 11 H 76.128900 56.802300 41.438400 0
M  V30 12 H 74.412100 56.105700 43.724600 0
M  V30 13 H 75.446200 57.562000 43.574200 0
M  V30 14 H 73.016700 58.231200 43.404600 0
M  V30 15 H 74.170700 56.757900 39.819700 0
M  V30 16 R 73.485400 53.149600 41.948100 0
M  V30 END ATOM
M  V30 BEGIN BOND
M  V30 1 1 2 1
M  V30 2 1 3 2
M  V30 3 1 4 3
M  V30 4 1 5 4
M  V30 5 1 6 5
M  V30 6 2 7 6
M  V30 7 1 8 3
M  V30 8 1 8 6
M  V30 9 1 9 2
M  V30 10 1 10 2
M  V30 11 1 3 11 CFG=3
M  V30 12 1 12 4
M  V30 13 1 13 4
M  V30 14 1 14 5
M  V30 15 1 15 8
M  V30 16 1 16 1
M  V30 END BOND
M  V30 END CTAB
M  END
$$$$
R-group 541 (25931-2)
     RDKit          3D

  0  0  0  0  0  0  0  0  0  0999 V3000
M  V30 BEGIN CTAB
M  V30 COUNTS 21 20 0 0 1
M  V30 BEGIN ATOM
M  V30 1 C 74.465100 57.650600 39.353700 0
M  V30 2 C 74.045100 57.659000 40.814100 0
M  V30 3 C 72.872300 56.858800 41.122300 0
M  V30 4 C 72.919100 55.358100 40.835700 0
M  V30 5 C 73.472800 54.589300 42.052900 0 CFG=2
M  V30 6 C 74.881700 55.120300 42.340200 0
M  V30 7 N 75.272100 55.258000 43.606900 0
M  V30 8 O 75.650900 55.404400 41.421400 0
M  V30 9 H 75.475800 58.056500 39.324700 0
M  V30 10 H 74.430000 56.700300 38.823200 0
M  V30 11 H 73.784200 58.376600 38.925000 0
M  V30 12 H 73.671500 58.644200 41.092200 0
M  V30 13 H 74.882700 57.574900 41.495100 0
M  V30 14 H 72.071600 57.278100 40.518500 0
M  V30 15 H 72.639000 57.082900 42.168700 0
M  V30 16 H 73.512900 55.179200 39.947500 0
M  V30 17 H 71.930300 55.005500 40.524600 0
M  V30 18 H 72.854000 54.834100 42.918900 0
M  V30 19 H 74.617700 55.047700 44.350900 0
M  V30 20 H 76.192000 55.622800 43.808100 0
M  V30 21 R 73.421800 53.046000 41.887600 0
M  V30 END ATOM
M  V30 BEGIN BOND
M  V30 1 1 2 1
M  V30 2 1 3 2
M  V30 3 1 4 3
M  V30 4 1 5 4
M  V30 5 1 6 5
M  V30 6 1 7 6
M  V30 7 2 8 6
M  V30 8 1 9 1
M  V30 9 1 10 1
M  V30 10 1 11 1
M  V30 11 1 12 2
M  V30 12 1 13 2
M  V30 13 1 14 3
M  V30 14 1 15 3
M  V30 15 1 16 4
M  V30 16 1 17 4
M  V30 17 1 5 18 CFG=1
M  V30 18 1 19 7
M  V30 19 1 20 7
M  V30 20 1 21 5
M  V30 END BOND
M  V30 END CTAB
M  END
$$$$
R-group 542 (854-1)
     RDKit          3D

  0  0  0  0  0  0  0  0  0  0999 V3000
M  V30 BEGIN CTAB
M  V30 COUNTS 14 14 0 0 1
M  V30 BEGIN ATOM
M  V30 1 S 74.078400 55.332400 41.794800 0
M  V30 2 O 73.487900 56.061100 42.924600 0
M  V30 3 O 75.499800 55.529300 41.497500 0
M  V30 4 N 73.272100 55.750500 40.331300 0
M  V30 5 C 72.705400 57.069600 40.147000 0
M  V30 6 C 73.190100 58.238600 40.971000 0
M  V30 7 C 73.644900 58.058100 39.543800 0
M  V30 8 H 71.698100 57.031800 39.733600 0
M  V30 9 H 72.461600 59.019900 41.180500 0
M  V30 10 H 73.969200 58.130200 41.721800 0
M  V30 11 H 74.638000 57.660600 39.323100 0
M  V30 12 H 73.285500 58.870900 38.924700 0
M  V30 13 H 73.851500 55.506200 39.530000 0
M  V30 14 R 73.645200 53.530400 41.967100 0
M  V30 END ATOM
M  V30 BEGIN BOND
M  V30 1 2 2 1
M  V30 2 2 3 1
M  V30 3 1 4 1
M  V30 4 1 5 4
M  V30 5 1 6 5
M  V30 6 1 7 5
M  V30 7 1 7 6
M  V30 8 1 8 5
M  V30 9 1 9 6
M  V30 10 1 10 6
M  V30 11 1 11 7
M  V30 12 1 12 7
M  V30 13 1 13 4
M  V30 14 1 14 1
M  V30 END BOND
M  V30 END CTAB
M  END
$$$$
R-group 543 (41329-4)
     RDKit          3D

  0  0  0  0  0  0  0  0  0  0999 V3000
M  V30 BEGIN CTAB
M  V30 COUNTS 24 24 0 0 1
M  V30 BEGIN ATOM
M  V30 1 C 74.195800 54.635200 42.523900 0 CFG=2
M  V30 2 C 73.101300 55.568800 42.235400 0
M  V30 3 C 73.781200 56.843700 41.790900 0 CFG=2
M  V30 4 O 73.671900 57.658000 42.923800 0
M  V30 5 C 73.040300 57.535900 40.624900 0
M  V30 6 O 72.871000 56.671400 39.518400 0
M  V30 7 C 75.262500 56.439500 41.535400 0
M  V30 8 C 76.334900 56.986600 42.480100 0
M  V30 9 C 75.796000 56.623300 40.124800 0
M  V30 10 O 75.270700 55.040500 41.710300 0
M  V30 11 H 74.486500 54.793700 43.562200 0
M  V30 12 H 72.479600 55.144200 41.443300 0
M  V30 13 H 72.471800 55.679300 43.118200 0
M  V30 14 H 72.072200 57.894900 40.949100 0
M  V30 15 H 73.553500 58.425200 40.289600 0
M  V30 16 H 76.480500 58.057300 42.406100 0
M  V30 17 H 76.180600 56.708600 43.523400 0
M  V30 18 H 77.272000 56.568500 42.124600 0
M  V30 19 H 75.819500 57.657400 39.799900 0
M  V30 20 H 76.818500 56.249100 40.124700 0
M  V30 21 H 75.236300 56.058600 39.387400 0
M  V30 22 H 74.122200 57.231400 43.635900 0
M  V30 23 H 73.626900 56.760200 38.955800 0
M  V30 24 R 73.765400 53.201700 42.226900 0
M  V30 END ATOM
M  V30 BEGIN BOND
M  V30 1 1 2 1
M  V30 2 1 3 2
M  V30 3 1 3 4 CFG=1
M  V30 4 1 5 3
M  V30 5 1 6 5
M  V30 6 1 7 3
M  V30 7 1 8 7
M  V30 8 1 9 7
M  V30 9 1 10 1
M  V30 10 1 10 7
M  V30 11 1 1 11 CFG=1
M  V30 12 1 12 2
M  V30 13 1 13 2
M  V30 14 1 14 5
M  V30 15 1 15 5
M  V30 16 1 16 8
M  V30 17 1 17 8
M  V30 18 1 18 8
M  V30 19 1 19 9
M  V30 20 1 20 9
M  V30 21 1 21 9
M  V30 22 1 22 4
M  V30 23 1 23 6
M  V30 24 1 24 1
M  V30 END BOND
M  V30 END CTAB
M  END
$$$$
R-group 544 (4604-1)
     RDKit          3D

  0  0  0  0  0  0  0  0  0  0999 V3000
M  V30 BEGIN CTAB
M  V30 COUNTS 16 16 0 0 1
M  V30 BEGIN ATOM
M  V30 1 C 73.755400 55.322200 43.188100 0
M  V30 2 C 74.497000 56.577600 42.692900 0 CFG=1
M  V30 3 O 75.861200 56.458100 42.949700 0
M  V30 4 C 74.261900 56.831200 41.280500 0
M  V30 5 C 75.001200 56.524300 40.194800 0
M  V30 6 C 74.070500 56.457900 39.138000 0
M  V30 7 C 72.878400 56.858000 39.651600 0
M  V30 8 O 73.033100 57.258000 40.925100 0
M  V30 9 H 72.706300 55.620200 43.229800 0
M  V30 10 H 74.074700 55.257600 44.221400 0
M  V30 11 H 74.146500 57.436700 43.266500 0
M  V30 12 H 76.031100 56.198200 40.188700 0
M  V30 13 H 74.243700 56.143300 38.124700 0
M  V30 14 H 71.886600 56.972700 39.242700 0
M  V30 15 H 76.263500 57.302300 42.808600 0
M  V30 16 R 73.789900 53.876200 42.521800 0
M  V30 END ATOM
M  V30 BEGIN BOND
M  V30 1 1 2 1
M  V30 2 1 3 2
M  V30 3 1 4 2
M  V30 4 2 5 4
M  V30 5 1 6 5
M  V30 6 2 7 6
M  V30 7 1 8 4
M  V30 8 1 8 7
M  V30 9 1 9 1
M  V30 10 1 10 1
M  V30 11 1 2 11 CFG=1
M  V30 12 1 12 5
M  V30 13 1 13 6
M  V30 14 1 14 7
M  V30 15 1 15 3
M  V30 16 1 16 1
M  V30 END BOND
M  V30 END CTAB
M  END
$$$$
R-group 545 (575-1)
     RDKit          3D

  0  0  0  0  0  0  0  0  0  0999 V3000
M  V30 BEGIN CTAB
M  V30 COUNTS 16 16 0 0 1
M  V30 BEGIN ATOM
M  V30 1 C 74.072800 54.878400 42.323900 0
M  V30 2 O 73.447400 55.743300 42.924700 0
M  V30 3 N 75.271200 55.134800 41.827500 0
M  V30 4 C 75.917300 56.398500 41.986000 0
M  V30 5 C 75.371600 57.487200 41.127800 0
M  V30 6 C 74.857000 57.258000 39.706400 0
M  V30 7 C 73.869600 57.620200 40.778100 0
M  V30 8 H 75.897800 56.715800 43.030800 0
M  V30 9 H 76.952700 56.273700 41.724700 0
M  V30 10 H 76.027700 58.338800 41.313500 0
M  V30 11 H 74.872200 58.019100 38.924800 0
M  V30 12 H 74.831600 56.236600 39.335100 0
M  V30 13 H 73.129600 56.835800 40.867200 0
M  V30 14 H 73.393000 58.592000 40.788800 0
M  V30 15 H 75.767400 54.398600 41.348700 0
M  V30 16 R 73.571300 53.445100 42.164200 0
M  V30 END ATOM
M  V30 BEGIN BOND
M  V30 1 2 2 1
M  V30 2 1 3 1
M  V30 3 1 4 3
M  V30 4 1 5 4
M  V30 5 1 6 5
M  V30 6 1 7 5
M  V30 7 1 7 6
M  V30 8 1 8 4
M  V30 9 1 9 4
M  V30 10 1 10 5
M  V30 11 1 11 6
M  V30 12 1 12 6
M  V30 13 1 13 7
M  V30 14 1 14 7
M  V30 15 1 15 3
M  V30 16 1 16 1
M  V30 END BOND
M  V30 END CTAB
M  END
$$$$
R-group 546 (2942-2)
     RDKit          3D

  0  0  0  0  0  0  0  0  0  0999 V3000
M  V30 BEGIN CTAB
M  V30 COUNTS 16 15 0 0 1
M  V30 BEGIN ATOM
M  V30 1 C 73.240800 54.349100 42.396500 0 CFG=2
M  V30 2 C 71.777500 54.457900 42.721800 0
M  V30 3 N 73.704200 55.373400 41.470700 0
M  V30 4 S 74.656400 56.639900 42.078800 0
M  V30 5 C 75.540300 57.195500 40.575900 0
M  V30 6 O 73.694200 57.657900 42.525700 0
M  V30 7 O 75.662300 56.072500 42.989200 0
M  V30 8 H 73.750900 54.537900 43.325200 0
M  V30 9 H 71.432300 53.623200 43.327400 0
M  V30 10 H 71.672200 55.362600 43.325200 0
M  V30 11 H 71.191200 54.457800 41.803200 0
M  V30 12 H 76.161200 58.055800 40.826500 0
M  V30 13 H 76.188200 56.390500 40.229000 0
M  V30 14 H 74.824600 57.440800 39.790300 0
M  V30 15 H 72.924600 55.745800 40.931600 0
M  V30 16 R 73.547200 52.958400 41.868800 0
M  V30 END ATOM
M  V30 BEGIN BOND
M  V30 1 1 2 1
M  V30 2 1 3 1
M  V30 3 1 4 3
M  V30 4 1 5 4
M  V30 5 2 6 4
M  V30 6 2 7 4
M  V30 7 1 1 8 CFG=1
M  V30 8 1 9 2
M  V30 9 1 10 2
M  V30 10 1 11 2
M  V30 11 1 12 5
M  V30 12 1 13 5
M  V30 13 1 14 5
M  V30 14 1 15 3
M  V30 15 1 16 1
M  V30 END BOND
M  V30 END CTAB
M  END
$$$$
R-group 547 (6290-1)
     RDKit          3D

  0  0  0  0  0  0  0  0  0  0999 V3000
M  V30 BEGIN CTAB
M  V30 COUNTS 21 20 0 0 1
M  V30 BEGIN ATOM
M  V30 1 O 74.161400 54.603700 42.460600 0
M  V30 2 C 73.201300 55.610800 42.589100 0
M  V30 3 C 73.096700 56.361400 41.250200 0
M  V30 4 C 74.373100 56.863900 40.635100 0
M  V30 5 C 75.086800 57.655300 41.691000 0
M  V30 6 C 73.931300 57.658100 39.406300 0
M  V30 7 C 75.353000 55.848800 40.134800 0
M  V30 8 H 73.509800 56.285300 43.388100 0
M  V30 9 H 72.244100 55.217900 42.927100 0
M  V30 10 H 72.497200 57.257000 41.446600 0
M  V30 11 H 72.522300 55.797800 40.524200 0
M  V30 12 H 76.025100 58.058900 41.323700 0
M  V30 13 H 75.371200 57.060900 42.557900 0
M  V30 14 H 74.383900 58.428300 42.001200 0
M  V30 15 H 73.387100 57.029700 38.697000 0
M  V30 16 H 73.271100 58.489800 39.672200 0
M  V30 17 H 74.807700 58.048900 38.897900 0
M  V30 18 H 74.870800 55.314300 39.327800 0
M  V30 19 H 76.197900 56.397200 39.725100 0
M  V30 20 H 75.751900 55.174600 40.889700 0
M  V30 21 R 73.685700 53.299000 42.218400 0
M  V30 END ATOM
M  V30 BEGIN BOND
M  V30 1 1 2 1
M  V30 2 1 3 2
M  V30 3 1 4 3
M  V30 4 1 5 4
M  V30 5 1 6 4
M  V30 6 1 7 4
M  V30 7 1 8 2
M  V30 8 1 9 2
M  V30 9 1 10 3
M  V30 10 1 11 3
M  V30 11 1 12 5
M  V30 12 1 13 5
M  V30 13 1 14 5
M  V30 14 1 15 6
M  V30 15 1 16 6
M  V30 16 1 17 6
M  V30 17 1 18 7
M  V30 18 1 19 7
M  V30 19 1 20 7
M  V30 20 1 21 1
M  V30 END BOND
M  V30 END CTAB
M  END
$$$$
R-group 548 (5803-1)
     RDKit          3D

  0  0  0  0  0  0  0  0  0  0999 V3000
M  V30 BEGIN CTAB
M  V30 COUNTS 19 19 0 0 1
M  V30 BEGIN ATOM
M  V30 1 C 74.147600 54.648300 42.709100 0
M  V30 2 C 72.985500 55.571000 42.525900 0
M  V30 3 C 73.272100 56.707400 41.500000 0 CFG=2
M  V30 4 C 73.168800 56.355700 40.009000 0
M  V30 5 C 74.334500 57.086000 39.386700 0
M  V30 6 C 75.358800 57.076900 40.516600 0
M  V30 7 O 74.573000 57.257400 41.694300 0
M  V30 8 H 74.476500 54.784300 43.739100 0
M  V30 9 H 75.014100 54.906300 42.108200 0
M  V30 10 H 72.161000 54.855600 42.321700 0
M  V30 11 H 72.747500 56.056300 43.476800 0
M  V30 12 H 72.579500 57.528000 41.691800 0
M  V30 13 H 73.314300 55.303200 39.830200 0
M  V30 14 H 72.210900 56.630900 39.570500 0
M  V30 15 H 74.694800 56.603400 38.480500 0
M  V30 16 H 74.037100 58.100100 39.133600 0
M  V30 17 H 75.874100 56.116400 40.545200 0
M  V30 18 H 76.127100 57.844100 40.405600 0
M  V30 19 R 73.733100 53.201200 42.424100 0
M  V30 END ATOM
M  V30 BEGIN BOND
M  V30 1 1 2 1
M  V30 2 1 3 2
M  V30 3 1 4 3
M  V30 4 1 5 4
M  V30 5 1 6 5
M  V30 6 1 7 3
M  V30 7 1 7 6
M  V30 8 1 8 1
M  V30 9 1 9 1
M  V30 10 1 10 2
M  V30 11 1 11 2
M  V30 12 1 3 12 CFG=1
M  V30 13 1 13 4
M  V30 14 1 14 4
M  V30 15 1 15 5
M  V30 16 1 16 5
M  V30 17 1 17 6
M  V30 18 1 18 6
M  V30 19 1 19 1
M  V30 END BOND
M  V30 END CTAB
M  END
$$$$
R-group 549 (22613-1)
     RDKit          3D

  0  0  0  0  0  0  0  0  0  0999 V3000
M  V30 BEGIN CTAB
M  V30 COUNTS 18 18 0 0 1
M  V30 BEGIN ATOM
M  V30 1 C 72.623500 53.985300 42.314200 0
M  V30 2 S 73.672700 55.525000 42.234700 0
M  V30 3 O 73.699500 56.017800 40.847900 0
M  V30 4 O 73.267700 56.457500 43.298600 0
M  V30 5 C 75.301800 54.952100 42.685500 0
M  V30 6 C 76.247500 56.058200 42.849800 0
M  V30 7 C 76.743800 56.806100 41.640700 0
M  V30 8 C 75.847400 57.439100 42.611300 0
M  V30 9 H 71.678200 54.220500 41.833400 0
M  V30 10 H 72.352400 53.716400 43.323300 0
M  V30 11 H 75.225600 54.494800 43.661400 0
M  V30 12 H 75.672300 54.293500 41.918700 0
M  V30 13 H 76.866000 55.942500 43.740300 0
M  V30 14 H 77.698100 57.260200 41.699100 0
M  V30 15 H 76.354100 56.578600 40.648800 0
M  V30 16 H 74.878400 57.738800 42.217400 0
M  V30 17 H 76.313600 58.050900 43.324700 0
M  V30 18 R 73.254700 52.769600 41.633900 0
M  V30 END ATOM
M  V30 BEGIN BOND
M  V30 1 1 2 1
M  V30 2 2 3 2
M  V30 3 2 4 2
M  V30 4 1 5 2
M  V30 5 1 6 5
M  V30 6 1 7 6
M  V30 7 1 8 6
M  V30 8 1 8 7
M  V30 9 1 9 1
M  V30 10 1 10 1
M  V30 11 1 11 5
M  V30 12 1 12 5
M  V30 13 1 13 6
M  V30 14 1 14 7
M  V30 15 1 15 7
M  V30 16 1 16 8
M  V30 17 1 17 8
M  V30 18 1 18 1
M  V30 END BOND
M  V30 END CTAB
M  END
$$$$
R-group 550 (16146-1)
     RDKit          3D

  0  0  0  0  0  0  0  0  0  0999 V3000
M  V30 BEGIN CTAB
M  V30 COUNTS 18 17 0 0 1
M  V30 BEGIN ATOM
M  V30 1 O 73.331000 54.353800 42.524400 0
M  V30 2 C 74.324800 55.357900 42.645900 0 CFG=2
M  V30 3 C 75.228400 55.257800 43.894000 0
M  V30 4 C 73.442000 56.599000 42.624200 0
M  V30 5 C 74.269600 57.829500 42.418600 0
M  V30 6 C 72.472300 56.704700 43.824300 0
M  V30 7 H 74.979800 55.380400 41.777700 0
M  V30 8 H 75.714700 56.202900 44.115000 0
M  V30 9 H 74.672000 54.964900 44.782700 0
M  V30 10 H 76.050900 54.558900 43.754100 0
M  V30 11 H 72.872400 56.553100 41.698900 0
M  V30 12 H 74.818100 58.058200 43.327100 0
M  V30 13 H 73.655300 58.682900 42.130800 0
M  V30 14 H 74.995200 57.658900 41.621700 0
M  V30 15 H 72.872500 56.457900 44.794800 0
M  V30 16 H 72.073500 57.709400 43.933700 0
M  V30 17 H 71.670700 55.979600 43.726200 0
M  V30 18 R 73.608800 53.176300 41.829300 0
M  V30 END ATOM
M  V30 BEGIN BOND
M  V30 1 1 2 1
M  V30 2 1 3 2
M  V30 3 1 4 2
M  V30 4 1 5 4
M  V30 5 1 6 4
M  V30 6 1 2 7 CFG=3
M  V30 7 1 8 3
M  V30 8 1 9 3
M  V30 9 1 10 3
M  V30 10 1 11 4
M  V30 11 1 12 5
M  V30 12 1 13 5
M  V30 13 1 14 5
M  V30 14 1 15 6
M  V30 15 1 16 6
M  V30 16 1 17 6
M  V30 17 1 18 1
M  V30 END BOND
M  V30 END CTAB
M  END
$$$$
R-group 551 (44030-1)
     RDKit          3D

  0  0  0  0  0  0  0  0  0  0999 V3000
M  V30 BEGIN CTAB
M  V30 COUNTS 19 18 0 0 1
M  V30 BEGIN ATOM
M  V30 1 C 71.281500 55.987200 39.418400 0
M  V30 2 O 72.620600 56.465200 39.324700 0
M  V30 3 C 72.990400 57.553200 40.181100 0
M  V30 4 C 73.670900 57.012800 41.427700 0
M  V30 5 O 73.672200 57.658000 42.468900 0
M  V30 6 N 73.943000 55.723000 41.389200 0
M  V30 7 C 74.077900 54.909300 42.568400 0 CFG=2
M  V30 8 C 75.495300 55.231400 43.044200 0
M  V30 9 H 71.035900 55.440900 38.512800 0
M  V30 10 H 71.140700 55.261100 40.215700 0
M  V30 11 H 70.557800 56.796400 39.518300 0
M  V30 12 H 72.142100 58.152600 40.524800 0
M  V30 13 H 73.672100 58.197200 39.629900 0
M  V30 14 H 73.375200 55.258600 43.324800 0
M  V30 15 H 75.871100 54.647600 43.879300 0
M  V30 16 H 76.072100 55.068500 42.144300 0
M  V30 17 H 75.621200 56.275000 43.333100 0
M  V30 18 H 73.813200 55.253600 40.503200 0
M  V30 19 R 73.719400 53.422400 42.229500 0
M  V30 END ATOM
M  V30 BEGIN BOND
M  V30 1 1 2 1
M  V30 2 1 3 2
M  V30 3 1 4 3
M  V30 4 2 5 4
M  V30 5 1 6 4
M  V30 6 1 7 6
M  V30 7 1 8 7
M  V30 8 1 9 1
M  V30 9 1 10 1
M  V30 10 1 11 1
M  V30 11 1 12 3
M  V30 12 1 13 3
M  V30 13 1 7 14 CFG=1
M  V30 14 1 15 8
M  V30 15 1 16 8
M  V30 16 1 17 8
M  V30 17 1 18 6
M  V30 18 1 19 7
M  V30 END BOND
M  V30 END CTAB
M  END
$$$$
R-group 552 (23402-1)
     RDKit          3D

  0  0  0  0  0  0  0  0  0  0999 V3000
M  V30 BEGIN CTAB
M  V30 COUNTS 15 14 0 0 1
M  V30 BEGIN ATOM
M  V30 1 C 73.559900 54.666200 42.525100 0 CFG=1
M  V30 2 C 74.650500 55.199100 43.495100 0
M  V30 3 N 73.693000 55.278900 41.223900 0
M  V30 4 S 74.004700 56.895500 40.984200 0
M  V30 5 N 75.708800 56.856900 41.128600 0
M  V30 6 O 73.672900 57.198300 39.593900 0
M  V30 7 O 73.424300 57.660900 42.091900 0
M  V30 8 H 72.591900 54.982600 42.920900 0
M  V30 9 H 74.474200 54.875600 44.516800 0
M  V30 10 H 75.645900 54.885600 43.194700 0
M  V30 11 H 74.683100 56.280100 43.552200 0
M  V30 12 H 76.000800 56.016000 41.621200 0
M  V30 13 H 73.984600 54.663200 40.467000 0
M  V30 14 H 76.167300 56.914800 40.221000 0
M  V30 15 R 73.511500 53.134100 42.294800 0
M  V30 END ATOM
M  V30 BEGIN BOND
M  V30 1 1 2 1
M  V30 2 1 3 1
M  V30 3 1 4 3
M  V30 4 1 5 4
M  V30 5 2 6 4
M  V30 6 2 7 4
M  V30 7 1 1 8 CFG=1
M  V30 8 1 9 2
M  V30 9 1 10 2
M  V30 10 1 11 2
M  V30 11 1 12 5
M  V30 12 1 13 3
M  V30 13 1 14 5
M  V30 14 1 15 1
M  V30 END BOND
M  V30 END CTAB
M  END
$$$$
R-group 553 (37712-1)
     RDKit          3D

  0  0  0  0  0  0  0  0  0  0999 V3000
M  V30 BEGIN CTAB
M  V30 COUNTS 14 15 0 0 1
M  V30 BEGIN ATOM
M  V30 1 C 74.086400 54.558100 42.018000 0
M  V30 2 N 74.872300 55.083700 42.976800 0
M  V30 3 C 75.219000 56.357500 42.882400 0
M  V30 4 N 74.798400 57.233400 41.976700 0
M  V30 5 C 74.005000 56.741400 41.037100 0
M  V30 6 C 73.273000 57.393900 40.016900 0
M  V30 7 C 72.575000 56.458200 39.327500 0
M  V30 8 N 72.872400 55.226700 39.850300 0
M  V30 9 C 73.672000 55.378200 40.969100 0
M  V30 10 H 75.865600 56.738800 43.659900 0
M  V30 11 H 73.271800 58.457700 39.844500 0
M  V30 12 H 71.856200 56.595200 38.540400 0
M  V30 13 H 72.465300 54.366600 39.511800 0
M  V30 14 R 73.657000 53.112300 42.154300 0
M  V30 END ATOM
M  V30 BEGIN BOND
M  V30 1 2 2 1
M  V30 2 1 3 2
M  V30 3 2 4 3
M  V30 4 1 5 4
M  V30 5 1 6 5
M  V30 6 2 7 6
M  V30 7 1 8 7
M  V30 8 1 9 1
M  V30 9 2 9 5
M  V30 10 1 9 8
M  V30 11 1 10 3
M  V30 12 1 11 6
M  V30 13 1 12 7
M  V30 14 1 13 8
M  V30 15 1 14 1
M  V30 END BOND
M  V30 END CTAB
M  END
$$$$
R-group 554 (12651-1)
     RDKit          3D

  0  0  0  0  0  0  0  0  0  0999 V3000
M  V30 BEGIN CTAB
M  V30 COUNTS 13 13 0 0 1
M  V30 BEGIN ATOM
M  V30 1 C 73.390600 54.242000 41.829500 0
M  V30 2 N 72.874600 54.846300 40.635400 0
M  V30 3 C 73.296100 56.036000 40.124300 0
M  V30 4 C 72.281700 56.435700 39.324700 0
M  V30 5 C 71.303500 55.408100 39.324600 0
M  V30 6 C 70.072200 55.461500 38.533500 0
M  V30 7 N 69.093200 55.506200 37.915700 0
M  V30 8 N 71.672500 54.454800 40.124400 0
M  V30 9 H 74.389400 54.648900 41.986100 0
M  V30 10 H 72.797400 54.593300 42.676100 0
M  V30 11 H 74.221700 56.514300 40.409900 0
M  V30 12 H 72.296500 57.257900 38.663900 0
M  V30 13 R 73.426000 52.718200 41.816300 0
M  V30 END ATOM
M  V30 BEGIN BOND
M  V30 1 1 2 1
M  V30 2 1 3 2
M  V30 3 2 4 3
M  V30 4 1 5 4
M  V30 5 1 6 5
M  V30 6 3 7 6
M  V30 7 1 8 2
M  V30 8 2 8 5
M  V30 9 1 9 1
M  V30 10 1 10 1
M  V30 11 1 11 3
M  V30 12 1 12 4
M  V30 13 1 13 1
M  V30 END BOND
M  V30 END CTAB
M  END
$$$$
R-group 555 (3878-1)
     RDKit          3D

  0  0  0  0  0  0  0  0  0  0999 V3000
M  V30 BEGIN CTAB
M  V30 COUNTS 17 16 0 0 1
M  V30 BEGIN ATOM
M  V30 1 N 73.423900 54.705900 41.835500 0
M  V30 2 C 73.922800 55.488100 42.964900 0
M  V30 3 C 75.278000 56.146300 42.779500 0
M  V30 4 O 76.071400 56.058000 43.723000 0
M  V30 5 N 75.581500 56.858000 41.675300 0
M  V30 6 C 76.776900 57.695900 41.722600 0
M  V30 7 C 74.729900 57.020900 40.494200 0
M  V30 8 H 72.478000 54.983700 41.597300 0
M  V30 9 H 73.192700 56.254300 43.225400 0
M  V30 10 H 74.072300 54.880700 43.841500 0
M  V30 11 H 76.872300 58.228300 42.670400 0
M  V30 12 H 77.672200 57.126100 41.724700 0
M  V30 13 H 76.832400 58.427400 40.918300 0
M  V30 14 H 74.524200 56.071900 40.008200 0
M  V30 15 H 73.781200 57.489600 40.760200 0
M  V30 16 H 75.203400 57.627300 39.725000 0
M  V30 17 R 73.430200 53.255100 41.882200 0
M  V30 END ATOM
M  V30 BEGIN BOND
M  V30 1 1 2 1
M  V30 2 1 3 2
M  V30 3 2 4 3
M  V30 4 1 5 3
M  V30 5 1 6 5
M  V30 6 1 7 5
M  V30 7 1 8 1
M  V30 8 1 9 2
M  V30 9 1 10 2
M  V30 10 1 11 6
M  V30 11 1 12 6
M  V30 12 1 13 6
M  V30 13 1 14 7
M  V30 14 1 15 7
M  V30 15 1 16 7
M  V30 16 1 17 1
M  V30 END BOND
M  V30 END CTAB
M  END
$$$$
R-group 556 (1565-1)
     RDKit          3D

  0  0  0  0  0  0  0  0  0  0999 V3000
M  V30 BEGIN CTAB
M  V30 COUNTS 18 17 0 0 1
M  V30 BEGIN ATOM
M  V30 1 C 73.127100 54.339800 42.436500 0
M  V30 2 N 73.677200 55.277700 41.498300 0
M  V30 3 S 74.602600 56.552600 42.106500 0
M  V30 4 O 73.672200 57.658000 42.362500 0
M  V30 5 O 75.550800 56.058500 43.116800 0
M  V30 6 N 75.505300 56.857700 40.695000 0
M  V30 7 C 74.802600 57.054200 39.408000 0
M  V30 8 C 76.720400 57.654500 40.891000 0
M  V30 9 H 72.066500 54.521500 42.603800 0
M  V30 10 H 73.673300 54.540100 43.332900 0
M  V30 11 H 75.271400 56.458000 38.648500 0
M  V30 12 H 73.748900 56.785800 39.460800 0
M  V30 13 H 74.864400 58.054200 39.003900 0
M  V30 14 H 77.460600 57.472800 40.124300 0
M  V30 15 H 76.472300 58.707500 40.924100 0
M  V30 16 H 77.199000 57.402100 41.835100 0
M  V30 17 H 72.949900 55.632900 40.879800 0
M  V30 18 R 73.408300 52.916000 41.973900 0
M  V30 END ATOM
M  V30 BEGIN BOND
M  V30 1 1 2 1
M  V30 2 1 3 2
M  V30 3 2 4 3
M  V30 4 2 5 3
M  V30 5 1 6 3
M  V30 6 1 7 6
M  V30 7 1 8 6
M  V30 8 1 9 1
M  V30 9 1 10 1
M  V30 10 1 11 7
M  V30 11 1 12 7
M  V30 12 1 13 7
M  V30 13 1 14 8
M  V30 14 1 15 8
M  V30 15 1 16 8
M  V30 16 1 17 2
M  V30 17 1 18 1
M  V30 END BOND
M  V30 END CTAB
M  END
$$$$
R-group 557 (5733-1)
     RDKit          3D

  0  0  0  0  0  0  0  0  0  0999 V3000
M  V30 BEGIN CTAB
M  V30 COUNTS 24 23 0 0 1
M  V30 BEGIN ATOM
M  V30 1 C 76.801900 54.509100 44.918700 0
M  V30 2 C 75.401400 55.134100 44.798800 0
M  V30 3 C 75.213400 56.058000 43.584600 0
M  V30 4 C 74.858200 55.406500 42.265400 0
M  V30 5 C 74.566600 56.507500 41.225800 0
M  V30 6 C 75.733200 56.686500 40.270900 0
M  V30 7 C 76.832400 57.616600 40.791200 0
M  V30 8 O 73.649100 54.690200 42.466100 0
M  V30 9 H 76.923900 54.013800 45.881600 0
M  V30 10 H 76.986600 53.768400 44.140400 0
M  V30 11 H 77.587500 55.263500 44.853800 0
M  V30 12 H 75.294200 55.657800 45.724100 0
M  V30 13 H 74.523700 54.493100 44.898300 0
M  V30 14 H 76.058900 56.737000 43.498100 0
M  V30 15 H 74.324800 56.673000 43.723800 0
M  V30 16 H 75.671300 54.746800 41.963600 0
M  V30 17 H 73.684500 56.240600 40.644200 0
M  V30 18 H 74.298200 57.462300 41.680200 0
M  V30 19 H 76.188100 55.709200 40.124900 0
M  V30 20 H 75.312000 57.032900 39.325000 0
M  V30 21 H 77.681000 57.661500 40.114800 0
M  V30 22 H 76.472300 58.624500 40.925600 0
M  V30 23 H 77.215800 57.273600 41.746000 0
M  V30 24 R 73.569900 53.389400 41.899200 0
M  V30 END ATOM
M  V30 BEGIN BOND
M  V30 1 1 2 1
M  V30 2 1 3 2
M  V30 3 1 4 3
M  V30 4 1 5 4
M  V30 5 1 6 5
M  V30 6 1 7 6
M  V30 7 1 8 4
M  V30 8 1 9 1
M  V30 9 1 10 1
M  V30 10 1 11 1
M  V30 11 1 12 2
M  V30 12 1 13 2
M  V30 13 1 14 3
M  V30 14 1 15 3
M  V30 15 1 16 4
M  V30 16 1 17 5
M  V30 17 1 18 5
M  V30 18 1 19 6
M  V30 19 1 20 6
M  V30 20 1 21 7
M  V30 21 1 22 7
M  V30 22 1 23 7
M  V30 23 1 24 8
M  V30 END BOND
M  V30 END CTAB
M  END
$$$$
R-group 558 (41837-1)
     RDKit          3D

  0  0  0  0  0  0  0  0  0  0999 V3000
M  V30 BEGIN CTAB
M  V30 COUNTS 19 19 0 0 1
M  V30 BEGIN ATOM
M  V30 1 O 74.074800 54.753300 42.788900 0
M  V30 2 C 75.462100 55.091600 42.903900 0
M  V30 3 C 75.671600 56.558100 42.618400 0
M  V30 4 C 74.772000 56.858000 41.501000 0
M  V30 5 C 74.858300 56.475500 40.200800 0
M  V30 6 C 73.613800 56.858000 39.657700 0
M  V30 7 N 72.872300 57.516400 40.524700 0
M  V30 8 N 73.554200 57.467300 41.679200 0
M  V30 9 C 72.909500 57.938200 42.888700 0
M  V30 10 H 75.880800 54.828400 43.875100 0
M  V30 11 H 76.000900 54.564200 42.124500 0
M  V30 12 H 75.459200 57.169000 43.493100 0
M  V30 13 H 76.702200 56.756700 42.328100 0
M  V30 14 H 75.674600 55.970000 39.725400 0
M  V30 15 H 73.258000 56.740900 38.644600 0
M  V30 16 H 73.621800 58.456800 43.520300 0
M  V30 17 H 72.091900 58.617700 42.642300 0
M  V30 18 H 72.520200 57.084800 43.446700 0
M  V30 19 R 73.729300 53.412500 42.441600 0
M  V30 END ATOM
M  V30 BEGIN BOND
M  V30 1 1 2 1
M  V30 2 1 3 2
M  V30 3 1 4 3
M  V30 4 2 5 4
M  V30 5 1 6 5
M  V30 6 2 7 6
M  V30 7 1 8 4
M  V30 8 1 8 7
M  V30 9 1 9 8
M  V30 10 1 10 2
M  V30 11 1 11 2
M  V30 12 1 12 3
M  V30 13 1 13 3
M  V30 14 1 14 5
M  V30 15 1 15 6
M  V30 16 1 16 9
M  V30 17 1 17 9
M  V30 18 1 18 9
M  V30 19 1 19 1
M  V30 END BOND
M  V30 END CTAB
M  END
$$$$
R-group 559 (6850-1)
     RDKit          3D

  0  0  0  0  0  0  0  0  0  0999 V3000
M  V30 BEGIN CTAB
M  V30 COUNTS 17 16 0 0 1
M  V30 BEGIN ATOM
M  V30 1 C 73.899300 54.712500 42.694100 0
M  V30 2 C 75.185600 55.295300 42.095100 0
M  V30 3 C 74.977900 56.711000 41.626300 0
M  V30 4 S 73.601500 56.846200 40.417600 0
M  V30 5 C 74.472000 57.081300 38.923500 0
M  V30 6 O 72.892600 55.596900 40.124400 0
M  V30 7 O 72.872100 58.057700 40.784000 0
M  V30 8 H 72.995900 55.288700 42.511300 0
M  V30 9 H 74.072100 54.862200 43.750100 0
M  V30 10 H 75.958100 55.307600 42.861600 0
M  V30 11 H 75.590600 54.705500 41.283300 0
M  V30 12 H 74.730000 57.342500 42.479700 0
M  V30 13 H 75.884300 57.121200 41.184700 0
M  V30 14 H 73.784200 56.857600 38.125100 0
M  V30 15 H 74.872000 58.055700 38.870600 0
M  V30 16 H 75.272300 56.382500 38.925300 0
M  V30 17 R 73.633200 53.225000 42.414200 0
M  V30 END ATOM
M  V30 BEGIN BOND
M  V30 1 1 2 1
M  V30 2 1 3 2
M  V30 3 1 4 3
M  V30 4 1 5 4
M  V30 5 2 6 4
M  V30 6 2 7 4
M  V30 7 1 8 1
M  V30 8 1 9 1
M  V30 9 1 10 2
M  V30 10 1 11 2
M  V30 11 1 12 3
M  V30 12 1 13 3
M  V30 13 1 14 5
M  V30 14 1 15 5
M  V30 15 1 16 5
M  V30 16 1 17 1
M  V30 END BOND
M  V30 END CTAB
M  END
$$$$
R-group 560 (32878-2)
     RDKit          3D

  0  0  0  0  0  0  0  0  0  0999 V3000
M  V30 BEGIN CTAB
M  V30 COUNTS 17 16 0 0 1
M  V30 BEGIN ATOM
M  V30 1 C 72.581100 58.565400 41.875800 0
M  V30 2 C 73.672200 57.967600 41.011300 0
M  V30 3 S 73.640100 56.244500 40.468300 0
M  V30 4 O 74.872300 56.227200 39.724700 0
M  V30 5 O 72.401200 55.952900 39.724900 0
M  V30 6 C 74.017300 55.146100 41.942000 0 CFG=1
M  V30 7 C 73.673800 55.819400 43.264700 0
M  V30 8 H 72.832500 59.594000 42.124600 0
M  V30 9 H 71.672200 58.631100 41.305400 0
M  V30 10 H 72.467400 58.058200 42.824100 0
M  V30 11 H 74.640500 58.058000 41.492900 0
M  V30 12 H 73.670200 58.458000 40.039700 0
M  V30 13 H 75.107900 55.148200 41.927100 0
M  V30 14 H 74.073000 55.261400 44.107800 0
M  V30 15 H 74.150000 56.794200 43.324100 0
M  V30 16 H 72.595200 55.929700 43.374700 0
M  V30 17 R 73.617700 53.633900 41.862100 0
M  V30 END ATOM
M  V30 BEGIN BOND
M  V30 1 1 2 1
M  V30 2 1 3 2
M  V30 3 2 4 3
M  V30 4 2 5 3
M  V30 5 1 6 3
M  V30 6 1 7 6
M  V30 7 1 8 1
M  V30 8 1 9 1
M  V30 9 1 10 1
M  V30 10 1 11 2
M  V30 11 1 12 2
M  V30 12 1 6 13 CFG=1
M  V30 13 1 14 7
M  V30 14 1 15 7
M  V30 15 1 16 7
M  V30 16 1 17 6
M  V30 END BOND
M  V30 END CTAB
M  END
$$$$
R-group 561 (34068-2)
     RDKit          3D

  0  0  0  0  0  0  0  0  0  0999 V3000
M  V30 BEGIN CTAB
M  V30 COUNTS 23 24 0 0 1
M  V30 BEGIN ATOM
M  V30 1 C 73.717600 55.051200 41.178900 0 CFG=1
M  V30 2 C 74.083500 55.648200 39.820600 0
M  V30 3 C 72.687200 55.852200 40.323000 0 CFG=1
M  V30 4 C 71.467800 55.211500 39.633500 0
M  V30 5 N 70.499600 56.061200 38.943200 0
M  V30 6 C 69.260400 55.751300 38.519500 0
M  V30 7 O 68.592800 56.586400 37.916100 0
M  V30 8 C 68.720800 54.393700 38.873500 0
M  V30 9 C 67.458100 54.380600 39.712900 0
M  V30 10 C 67.399200 53.962900 38.266800 0
M  V30 11 H 74.085300 55.615500 42.029400 0
M  V30 12 H 74.747600 56.511000 39.830000 0
M  V30 13 H 74.081400 55.113900 38.880400 0
M  V30 14 H 72.479200 56.867600 40.668600 0
M  V30 15 H 71.804500 54.559100 38.829000 0
M  V30 16 H 70.940400 54.630900 40.392300 0
M  V30 17 H 69.434800 53.591000 39.053600 0
M  V30 18 H 67.380800 53.613800 40.481000 0
M  V30 19 H 66.996600 55.333700 39.972500 0
M  V30 20 H 66.884000 54.635200 37.584100 0
M  V30 21 H 67.282500 52.907700 38.036100 0
M  V30 22 H 70.821100 56.990600 38.712300 0
M  V30 23 R 73.626000 53.536000 41.526600 0
M  V30 END ATOM
M  V30 BEGIN BOND
M  V30 1 1 2 1
M  V30 2 1 3 1
M  V30 3 1 3 2
M  V30 4 1 4 3
M  V30 5 1 5 4
M  V30 6 1 6 5
M  V30 7 2 7 6
M  V30 8 1 8 6
M  V30 9 1 9 8
M  V30 10 1 10 8
M  V30 11 1 10 9
M  V30 12 1 1 11 CFG=1
M  V30 13 1 12 2
M  V30 14 1 13 2
M  V30 15 1 3 14 CFG=1
M  V30 16 1 15 4
M  V30 17 1 16 4
M  V30 18 1 17 8
M  V30 19 1 18 9
M  V30 20 1 19 9
M  V30 21 1 20 10
M  V30 22 1 21 10
M  V30 23 1 22 5
M  V30 24 1 23 1
M  V30 END BOND
M  V30 END CTAB
M  END
$$$$
R-group 562 (27096-1)
     RDKit          3D

  0  0  0  0  0  0  0  0  0  0999 V3000
M  V30 BEGIN CTAB
M  V30 COUNTS 12 12 0 0 1
M  V30 BEGIN ATOM
M  V30 1 N 73.339200 54.235400 41.962100 0
M  V30 2 C 74.117600 55.078300 41.293200 0
M  V30 3 O 75.054500 54.812800 40.538500 0
M  V30 4 C 73.744500 56.414000 41.594300 0
M  V30 5 C 73.271000 57.451200 40.839000 0
M  V30 6 N 72.871500 58.437900 41.722200 0
M  V30 7 C 73.241400 57.960500 42.898600 0
M  V30 8 O 73.701700 56.710600 42.919600 0
M  V30 9 H 73.118400 57.530400 39.779800 0
M  V30 10 H 73.027300 58.455500 43.839100 0
M  V30 11 H 72.697200 54.655200 42.632400 0
M  V30 12 R 73.352700 52.808500 41.905000 0
M  V30 END ATOM
M  V30 BEGIN BOND
M  V30 1 1 2 1
M  V30 2 2 3 2
M  V30 3 1 4 2
M  V30 4 2 5 4
M  V30 5 1 6 5
M  V30 6 2 7 6
M  V30 7 1 8 4
M  V30 8 1 8 7
M  V30 9 1 9 5
M  V30 10 1 10 7
M  V30 11 1 11 1
M  V30 12 1 12 1
M  V30 END BOND
M  V30 END CTAB
M  END
$$$$
R-group 563 (692-1)
     RDKit          3D

  0  0  0  0  0  0  0  0  0  0999 V3000
M  V30 BEGIN CTAB
M  V30 COUNTS 15 15 0 0 1
M  V30 BEGIN ATOM
M  V30 1 C 74.703300 54.807200 42.670200 0
M  V30 2 C 74.179100 56.037200 42.042100 0
M  V30 3 C 73.474300 56.970600 42.823300 0
M  V30 4 C 72.877600 58.058000 42.182700 0
M  V30 5 C 72.872300 58.058000 40.788900 0
M  V30 6 C 73.629200 57.188300 40.003000 0
M  V30 7 C 74.369300 56.222800 40.662100 0
M  V30 8 H 74.809900 54.980700 43.742100 0
M  V30 9 H 75.701500 54.697600 42.269000 0
M  V30 10 H 73.272800 56.816100 43.873900 0
M  V30 11 H 72.324400 58.802100 42.735000 0
M  V30 12 H 72.439400 58.918100 40.316400 0
M  V30 13 H 73.696400 57.314500 38.928400 0
M  V30 14 H 75.011500 55.601300 40.075300 0
M  V30 15 R 73.902100 53.518400 42.371900 0
M  V30 END ATOM
M  V30 BEGIN BOND
M  V30 1 1 2 1
M  V30 2 2 3 2
M  V30 3 1 4 3
M  V30 4 2 5 4
M  V30 5 1 6 5
M  V30 6 1 7 2
M  V30 7 2 7 6
M  V30 8 1 8 1
M  V30 9 1 9 1
M  V30 10 1 10 3
M  V30 11 1 11 4
M  V30 12 1 12 5
M  V30 13 1 13 6
M  V30 14 1 14 7
M  V30 15 1 15 1
M  V30 END BOND
M  V30 END CTAB
M  END
$$$$
R-group 564 (41329-2)
     RDKit          3D

  0  0  0  0  0  0  0  0  0  0999 V3000
M  V30 BEGIN CTAB
M  V30 COUNTS 24 24 0 0 1
M  V30 BEGIN ATOM
M  V30 1 C 73.998300 54.389400 42.317200 0 CFG=2
M  V30 2 C 72.885200 55.266500 41.984900 0
M  V30 3 C 73.541800 56.521600 41.391100 0 CFG=1
M  V30 4 O 73.139200 56.583600 40.043800 0
M  V30 5 C 73.032500 57.843200 41.965600 0
M  V30 6 O 72.890500 57.665700 43.328100 0
M  V30 7 C 75.066800 56.221600 41.471400 0
M  V30 8 C 75.863400 56.592500 42.727400 0
M  V30 9 C 75.865700 56.684500 40.244500 0
M  V30 10 O 75.062700 54.816300 41.486400 0
M  V30 11 H 74.233500 54.590800 43.361800 0
M  V30 12 H 72.220200 54.847700 41.230400 0
M  V30 13 H 72.323400 55.362500 42.927000 0
M  V30 14 H 73.679600 58.681200 41.755000 0
M  V30 15 H 72.075400 58.120000 41.554500 0
M  V30 16 H 75.904400 57.651100 42.870600 0
M  V30 17 H 75.531600 56.173800 43.682900 0
M  V30 18 H 76.870400 56.250300 42.520900 0
M  V30 19 H 76.130200 57.748000 40.291500 0
M  V30 20 H 76.785800 56.103600 40.141800 0
M  V30 21 H 75.337500 56.498600 39.317800 0
M  V30 22 H 73.538400 55.850000 39.594500 0
M  V30 23 H 72.434800 56.834900 43.488400 0
M  V30 24 R 73.611200 52.944500 42.143000 0
M  V30 END ATOM
M  V30 BEGIN BOND
M  V30 1 1 2 1
M  V30 2 1 3 2
M  V30 3 1 3 4 CFG=3
M  V30 4 1 5 3
M  V30 5 1 6 5
M  V30 6 1 7 3
M  V30 7 1 8 7
M  V30 8 1 9 7
M  V30 9 1 10 1
M  V30 10 1 10 7
M  V30 11 1 1 11 CFG=1
M  V30 12 1 12 2
M  V30 13 1 13 2
M  V30 14 1 14 5
M  V30 15 1 15 5
M  V30 16 1 16 8
M  V30 17 1 17 8
M  V30 18 1 18 8
M  V30 19 1 19 9
M  V30 20 1 20 9
M  V30 21 1 21 9
M  V30 22 1 22 4
M  V30 23 1 23 6
M  V30 24 1 24 1
M  V30 END BOND
M  V30 END CTAB
M  END
$$$$
R-group 565 (19113-1)
     RDKit          3D

  0  0  0  0  0  0  0  0  0  0999 V3000
M  V30 BEGIN CTAB
M  V30 COUNTS 12 12 0 0 1
M  V30 BEGIN ATOM
M  V30 1 C 77.142900 57.311400 40.724400 0
M  V30 2 O 75.947700 57.643200 41.324800 0
M  V30 3 C 75.020400 56.721300 41.597400 0
M  V30 4 N 74.069400 56.858200 42.511700 0
M  V30 5 C 73.283400 55.708300 42.579100 0
M  V30 6 C 73.710300 54.700600 41.766600 0
M  V30 7 S 74.872900 55.289200 40.639500 0
M  V30 8 H 77.531500 58.127000 40.121200 0
M  V30 9 H 77.724000 57.258300 41.633200 0
M  V30 10 H 77.162600 56.398000 40.143100 0
M  V30 11 H 72.508700 55.658000 43.324800 0
M  V30 12 R 73.390600 53.263600 41.857700 0
M  V30 END ATOM
M  V30 BEGIN BOND
M  V30 1 1 2 1
M  V30 2 1 3 2
M  V30 3 2 4 3
M  V30 4 1 5 4
M  V30 5 2 6 5
M  V30 6 1 7 3
M  V30 7 1 7 6
M  V30 8 1 8 1
M  V30 9 1 9 1
M  V30 10 1 10 1
M  V30 11 1 11 5
M  V30 12 1 12 6
M  V30 END BOND
M  V30 END CTAB
M  END
$$$$
R-group 566 (15989-3)
     RDKit          3D

  0  0  0  0  0  0  0  0  0  0999 V3000
M  V30 BEGIN CTAB
M  V30 COUNTS 19 20 0 0 1
M  V30 BEGIN ATOM
M  V30 1 O 73.408800 54.191900 42.404000 0
M  V30 2 C 74.578700 54.960900 42.158000 0 CFG=2
M  V30 3 C 74.494500 56.056500 43.198400 0
M  V30 4 O 73.670700 57.024500 42.572100 0
M  V30 5 C 74.085900 57.054000 41.220900 0 CFG=2
M  V30 6 C 73.014600 57.395100 40.216800 0 CFG=1
M  V30 7 F 73.672300 58.057500 39.324700 0
M  V30 8 C 72.703600 56.150500 39.413800 0
M  V30 9 O 73.277900 55.144000 40.169600 0
M  V30 10 C 74.424500 55.647000 40.836700 0 CFG=2
M  V30 11 H 75.543700 54.459500 42.233700 0
M  V30 12 H 74.074900 55.657700 44.124500 0
M  V30 13 H 75.478200 56.485700 43.393700 0
M  V30 14 H 74.989500 57.658100 41.154100 0
M  V30 15 H 72.172800 57.984200 40.579900 0
M  V30 16 H 71.640800 55.988800 39.229200 0
M  V30 17 H 73.270800 56.126600 38.478900 0
M  V30 18 H 75.305900 55.600800 40.189700 0
M  V30 19 R 73.452700 52.809700 42.167400 0
M  V30 END ATOM
M  V30 BEGIN BOND
M  V30 1 1 2 1
M  V30 2 1 3 2
M  V30 3 1 4 3
M  V30 4 1 5 4
M  V30 5 1 6 5
M  V30 6 1 7 6
M  V30 7 1 8 6
M  V30 8 1 9 8
M  V30 9 1 10 2
M  V30 10 1 10 5
M  V30 11 1 10 9
M  V30 12 1 2 11 CFG=3
M  V30 13 1 12 3
M  V30 14 1 13 3
M  V30 15 1 5 14 CFG=1
M  V30 16 1 6 15 CFG=1
M  V30 17 1 16 8
M  V30 18 1 17 8
M  V30 19 1 10 18 CFG=3
M  V30 20 1 19 1
M  V30 END BOND
M  V30 END CTAB
M  END
$$$$
R-group 567 (36343-1)
     RDKit          3D

  0  0  0  0  0  0  0  0  0  0999 V3000
M  V30 BEGIN CTAB
M  V30 COUNTS 23 23 0 0 1
M  V30 BEGIN ATOM
M  V30 1 C 73.953000 56.237200 38.732200 0
M  V30 2 C 74.092900 56.663400 40.166600 0
M  V30 3 C 73.272400 57.566800 40.700000 0
M  V30 4 C 73.411600 58.188700 42.051200 0
M  V30 5 C 74.462100 57.520200 42.956000 0
M  V30 6 C 75.640900 56.884100 42.198200 0
M  V30 7 C 75.223700 56.064500 40.963300 0 CFG=1
M  V30 8 N 74.871700 54.703500 41.306800 0
M  V30 9 C 73.761800 54.228300 41.901800 0
M  V30 10 O 72.931300 54.858300 42.509600 0
M  V30 11 H 74.870400 56.450400 38.185400 0
M  V30 12 H 73.693000 55.181900 38.638900 0
M  V30 13 H 73.186600 56.852900 38.259300 0
M  V30 14 H 72.474200 57.985200 40.124100 0
M  V30 15 H 73.671600 59.186400 41.728000 0
M  V30 16 H 72.450600 58.255500 42.556000 0
M  V30 17 H 74.829700 58.205300 43.717200 0
M  V30 18 H 73.944000 56.745700 43.512400 0
M  V30 19 H 76.227400 56.269300 42.879500 0
M  V30 20 H 76.325100 57.657700 41.862500 0
M  V30 21 H 76.093900 55.996400 40.312700 0
M  V30 22 H 75.481800 53.998100 40.929200 0
M  V30 23 R 73.554500 52.767000 41.918500 0
M  V30 END ATOM
M  V30 BEGIN BOND
M  V30 1 1 2 1
M  V30 2 2 3 2
M  V30 3 1 4 3
M  V30 4 1 5 4
M  V30 5 1 6 5
M  V30 6 1 7 2
M  V30 7 1 7 6
M  V30 8 1 8 7
M  V30 9 1 9 8
M  V30 10 2 10 9
M  V30 11 1 11 1
M  V30 12 1 12 1
M  V30 13 1 13 1
M  V30 14 1 14 3
M  V30 15 1 15 4
M  V30 16 1 16 4
M  V30 17 1 17 5
M  V30 18 1 18 5
M  V30 19 1 19 6
M  V30 20 1 20 6
M  V30 21 1 7 21 CFG=3
M  V30 22 1 22 8
M  V30 23 1 23 9
M  V30 END BOND
M  V30 END CTAB
M  END
$$$$
R-group 568 (27277-1)
     RDKit          3D

  0  0  0  0  0  0  0  0  0  0999 V3000
M  V30 BEGIN CTAB
M  V30 COUNTS 21 21 0 0 1
M  V30 BEGIN ATOM
M  V30 1 C 74.038900 54.556300 42.626300 0 CFG=1
M  V30 2 C 75.289600 55.060400 41.905900 0
M  V30 3 C 75.624600 56.507800 42.252200 0
M  V30 4 C 74.401500 57.325700 41.817700 0 CFG=1
M  V30 5 C 74.161500 57.257900 40.301300 0
M  V30 6 F 73.272100 58.175500 39.924800 0
M  V30 7 F 75.329300 57.471900 39.715400 0
M  V30 8 C 73.221700 56.893800 42.654900 0
M  V30 9 C 72.872200 55.424700 42.371500 0
M  V30 10 H 74.246400 54.661400 43.691200 0
M  V30 11 H 76.072000 54.367400 42.124700 0
M  V30 12 H 75.187700 55.009600 40.835900 0
M  V30 13 H 75.811300 56.618000 43.320700 0
M  V30 14 H 76.528100 56.834600 41.733700 0
M  V30 15 H 74.471600 58.375400 42.034800 0
M  V30 16 H 73.791000 56.316900 39.909300 0
M  V30 17 H 72.467600 57.604700 42.383000 0
M  V30 18 H 73.403600 57.035100 43.722000 0
M  V30 19 H 72.650000 55.258000 41.317600 0
M  V30 20 H 72.014500 55.071700 42.935200 0
M  V30 21 R 73.663400 53.106900 42.299300 0
M  V30 END ATOM
M  V30 BEGIN BOND
M  V30 1 1 2 1
M  V30 2 1 3 2
M  V30 3 1 4 3
M  V30 4 1 5 4
M  V30 5 1 6 5
M  V30 6 1 7 5
M  V30 7 1 8 4
M  V30 8 1 9 1
M  V30 9 1 9 8
M  V30 10 1 1 10 CFG=1
M  V30 11 1 11 2
M  V30 12 1 12 2
M  V30 13 1 13 3
M  V30 14 1 14 3
M  V30 15 1 4 15 CFG=1
M  V30 16 1 16 5
M  V30 17 1 17 8
M  V30 18 1 18 8
M  V30 19 1 19 9
M  V30 20 1 20 9
M  V30 21 1 21 1
M  V30 END BOND
M  V30 END CTAB
M  END
$$$$
R-group 569 (17692-1)
     RDKit          3D

  0  0  0  0  0  0  0  0  0  0999 V3000
M  V30 BEGIN CTAB
M  V30 COUNTS 15 14 0 0 1
M  V30 BEGIN ATOM
M  V30 1 O 73.661800 54.536200 42.524900 0
M  V30 2 C 74.806500 55.343200 42.804200 0 CFG=2
M  V30 3 C 75.458600 55.219000 44.193700 0
M  V30 4 C 74.132900 56.692500 42.725800 0
M  V30 5 C 73.911600 57.057600 41.281600 0
M  V30 6 F 73.167100 58.139700 41.323200 0
M  V30 7 F 75.122200 57.254600 40.774400 0
M  V30 8 F 73.272300 56.184800 40.516600 0
M  V30 9 H 75.576100 55.241400 42.038100 0
M  V30 10 H 76.072000 56.090700 44.412100 0
M  V30 11 H 74.716100 55.148800 44.988400 0
M  V30 12 H 76.148000 54.387600 44.267500 0
M  V30 13 H 73.192900 56.690000 43.282200 0
M  V30 14 H 74.748200 57.471800 43.179200 0
M  V30 15 R 73.755100 53.283600 41.903000 0
M  V30 END ATOM
M  V30 BEGIN BOND
M  V30 1 1 2 1
M  V30 2 1 3 2
M  V30 3 1 4 2
M  V30 4 1 5 4
M  V30 5 1 6 5
M  V30 6 1 7 5
M  V30 7 1 8 5
M  V30 8 1 2 9 CFG=3
M  V30 9 1 10 3
M  V30 10 1 11 3
M  V30 11 1 12 3
M  V30 12 1 13 4
M  V30 13 1 14 4
M  V30 14 1 15 1
M  V30 END BOND
M  V30 END CTAB
M  END
$$$$
R-group 570 (24557-4)
     RDKit          3D

  0  0  0  0  0  0  0  0  0  0999 V3000
M  V30 BEGIN CTAB
M  V30 COUNTS 18 18 0 0 1
M  V30 BEGIN ATOM
M  V30 1 C 73.900900 55.201700 41.693600 0 CFG=2
M  V30 2 O 73.272900 55.784500 40.532000 0
M  V30 3 C 73.169900 55.686500 42.924800 0
M  V30 4 C 73.119500 57.198000 43.131000 0
M  V30 5 O 74.435200 57.644600 43.319000 0
M  V30 6 C 75.319500 57.263600 42.262600 0
M  V30 7 C 75.325400 55.795300 41.825700 0 CFG=2
M  V30 8 O 75.776900 55.905600 40.525100 0
M  V30 9 H 72.173300 55.251700 42.992200 0
M  V30 10 H 73.748800 55.271400 43.725600 0
M  V30 11 H 72.538200 57.447800 44.020900 0
M  V30 12 H 72.661600 57.707900 42.284000 0
M  V30 13 H 76.335000 57.601300 42.506600 0
M  V30 14 H 74.991000 57.875100 41.423900 0
M  V30 15 H 76.070000 55.251200 42.429800 0
M  V30 16 H 73.191900 56.717000 40.683100 0
M  V30 17 H 74.993200 56.019300 39.996500 0
M  V30 18 R 73.740800 53.625900 41.642500 0
M  V30 END ATOM
M  V30 BEGIN BOND
M  V30 1 1 2 1
M  V30 2 1 3 1
M  V30 3 1 4 3
M  V30 4 1 5 4
M  V30 5 1 6 5
M  V30 6 1 7 1
M  V30 7 1 7 6
M  V30 8 1 8 7
M  V30 9 1 9 3
M  V30 10 1 10 3
M  V30 11 1 11 4
M  V30 12 1 12 4
M  V30 13 1 13 6
M  V30 14 1 14 6
M  V30 15 1 7 15 CFG=1
M  V30 16 1 16 2
M  V30 17 1 17 8
M  V30 18 1 1 18 CFG=3
M  V30 END BOND
M  V30 END CTAB
M  END
$$$$
R-group 571 (11414-1)
     RDKit          3D

  0  0  0  0  0  0  0  0  0  0999 V3000
M  V30 BEGIN CTAB
M  V30 COUNTS 16 16 0 0 1
M  V30 BEGIN ATOM
M  V30 1 C 74.873700 55.142200 41.914600 0
M  V30 2 C 74.073200 56.384600 41.785600 0
M  V30 3 C 73.590300 57.164500 42.783800 0
M  V30 4 C 72.872300 58.233700 42.220400 0
M  V30 5 C 72.872200 58.057600 40.889000 0
M  V30 6 N 73.675100 56.967100 40.592400 0
M  V30 7 C 74.059900 56.583100 39.255800 0
M  V30 8 H 75.437100 55.243500 42.842800 0
M  V30 9 H 75.650800 55.085600 41.156300 0
M  V30 10 H 73.672100 56.954100 43.812200 0
M  V30 11 H 72.347000 59.019000 42.742600 0
M  V30 12 H 72.472400 58.688000 40.125900 0
M  V30 13 H 74.472000 57.452500 38.749700 0
M  V30 14 H 74.836400 55.830600 39.291400 0
M  V30 15 H 73.199300 56.211900 38.705500 0
M  V30 16 R 74.023800 53.850300 41.992300 0
M  V30 END ATOM
M  V30 BEGIN BOND
M  V30 1 1 2 1
M  V30 2 2 3 2
M  V30 3 1 4 3
M  V30 4 2 5 4
M  V30 5 1 6 2
M  V30 6 1 6 5
M  V30 7 1 7 6
M  V30 8 1 8 1
M  V30 9 1 9 1
M  V30 10 1 10 3
M  V30 11 1 11 4
M  V30 12 1 12 5
M  V30 13 1 13 7
M  V30 14 1 14 7
M  V30 15 1 15 7
M  V30 16 1 16 1
M  V30 END BOND
M  V30 END CTAB
M  END
$$$$
R-group 572 (12822-1)
     RDKit          3D

  0  0  0  0  0  0  0  0  0  0999 V3000
M  V30 BEGIN CTAB
M  V30 COUNTS 10 10 0 0 1
M  V30 BEGIN ATOM
M  V30 1 C 74.322800 54.801100 42.291300 0
M  V30 2 C 75.272200 55.375500 43.084800 0
M  V30 3 C 75.226600 56.770000 42.856700 0
M  V30 4 C 74.108900 56.942200 42.102200 0
M  V30 5 C 73.252500 58.011100 41.885500 0
M  V30 6 N 72.472300 58.858000 41.724800 0
M  V30 7 O 73.672300 55.762100 41.624200 0
M  V30 8 H 75.936200 54.862300 43.762400 0
M  V30 9 H 75.795100 57.541700 43.356900 0
M  V30 10 R 73.802200 53.416900 42.086600 0
M  V30 END ATOM
M  V30 BEGIN BOND
M  V30 1 2 2 1
M  V30 2 1 3 2
M  V30 3 2 4 3
M  V30 4 1 5 4
M  V30 5 3 6 5
M  V30 6 1 7 1
M  V30 7 1 7 4
M  V30 8 1 8 2
M  V30 9 1 9 3
M  V30 10 1 10 1
M  V30 END BOND
M  V30 END CTAB
M  END
$$$$
R-group 573 (7848-1)
     RDKit          3D

  0  0  0  0  0  0  0  0  0  0999 V3000
M  V30 BEGIN CTAB
M  V30 COUNTS 20 19 0 0 1
M  V30 BEGIN ATOM
M  V30 1 C 78.017500 53.581200 46.850600 0
M  V30 2 C 76.885000 54.367600 46.244000 0
M  V30 3 C 77.072700 54.582600 44.718400 0
M  V30 4 C 75.819700 55.225800 44.082600 0
M  V30 5 C 75.693000 55.407700 42.538600 0
M  V30 6 S 74.015700 55.594500 41.968400 0
M  V30 7 O 74.075600 56.181600 40.612600 0
M  V30 8 O 73.296600 56.324200 43.020800 0
M  V30 9 H 77.829100 53.321900 47.878600 0
M  V30 10 H 78.230500 52.676500 46.277700 0
M  V30 11 H 78.865800 54.230300 46.820300 0
M  V30 12 H 76.827400 55.248000 46.845600 0
M  V30 13 H 75.926200 53.890400 46.428100 0
M  V30 14 H 77.358900 53.660100 44.180200 0
M  V30 15 H 77.932800 55.244700 44.585600 0
M  V30 16 H 75.778300 56.170100 44.493900 0
M  V30 17 H 74.918700 54.752100 44.485600 0
M  V30 18 H 76.078100 54.566800 41.974500 0
M  V30 19 H 76.287400 56.260200 42.187300 0
M  V30 20 R 73.497300 53.763500 41.846800 0
M  V30 END ATOM
M  V30 BEGIN BOND
M  V30 1 1 2 1
M  V30 2 1 3 2
M  V30 3 1 4 3
M  V30 4 1 5 4
M  V30 5 1 6 5
M  V30 6 2 7 6
M  V30 7 2 8 6
M  V30 8 1 9 1
M  V30 9 1 10 1
M  V30 10 1 11 1
M  V30 11 1 12 2
M  V30 12 1 13 2
M  V30 13 1 14 3
M  V30 14 1 15 3
M  V30 15 1 16 4
M  V30 16 1 17 4
M  V30 17 1 18 5
M  V30 18 1 19 5
M  V30 19 1 20 6
M  V30 END BOND
M  V30 END CTAB
M  END
$$$$
R-group 574 (16283-1)
     RDKit          3D

  0  0  0  0  0  0  0  0  0  0999 V3000
M  V30 BEGIN CTAB
M  V30 COUNTS 19 19 0 0 1
M  V30 BEGIN ATOM
M  V30 1 O 73.726400 54.387700 42.524000 0
M  V30 2 C 74.910900 54.973300 42.018400 0 CFG=2
M  V30 3 C 75.652600 55.601600 43.169600 0
M  V30 4 C 74.375500 55.879100 40.996600 0
M  V30 5 N 74.407900 55.521200 39.729600 0
M  V30 6 C 73.694000 56.456800 39.074200 0
M  V30 7 C 73.272400 57.388700 39.968600 0
M  V30 8 N 73.673800 56.997600 41.226400 0
M  V30 9 C 73.366900 57.686900 42.465400 0
M  V30 10 H 75.608000 54.291000 41.531200 0
M  V30 11 H 76.415300 56.315800 42.862100 0
M  V30 12 H 74.880800 56.070500 43.724700 0
M  V30 13 H 76.071900 54.857300 43.840700 0
M  V30 14 H 73.672600 56.458100 37.995600 0
M  V30 15 H 72.872400 58.354900 39.740900 0
M  V30 16 H 72.697600 58.522800 42.274000 0
M  V30 17 H 72.874500 57.004400 43.157200 0
M  V30 18 H 74.283700 58.058200 42.917600 0
M  V30 19 R 73.533500 53.029700 42.227100 0
M  V30 END ATOM
M  V30 BEGIN BOND
M  V30 1 1 2 1
M  V30 2 1 3 2
M  V30 3 1 4 2
M  V30 4 2 5 4
M  V30 5 1 6 5
M  V30 6 2 7 6
M  V30 7 1 8 4
M  V30 8 1 8 7
M  V30 9 1 9 8
M  V30 10 1 2 10 CFG=3
M  V30 11 1 11 3
M  V30 12 1 12 3
M  V30 13 1 13 3
M  V30 14 1 14 6
M  V30 15 1 15 7
M  V30 16 1 16 9
M  V30 17 1 17 9
M  V30 18 1 18 9
M  V30 19 1 19 1
M  V30 END BOND
M  V30 END CTAB
M  END
$$$$
R-group 575 (9274-1)
     RDKit          3D

  0  0  0  0  0  0  0  0  0  0999 V3000
M  V30 BEGIN CTAB
M  V30 COUNTS 18 17 0 0 1
M  V30 BEGIN ATOM
M  V30 1 C 74.464100 55.087400 42.860900 0 CFG=2
M  V30 2 C 75.366400 55.258000 44.109000 0
M  V30 3 C 73.327700 56.130200 42.947400 0
M  V30 4 C 73.387400 57.292400 41.934700 0
M  V30 5 C 73.713200 56.857900 40.508000 0
M  V30 6 N 72.721100 56.495700 39.707900 0
M  V30 7 O 74.873000 56.851600 40.124500 0
M  V30 8 H 75.159600 55.329600 42.064100 0
M  V30 9 H 74.819900 55.095500 45.038500 0
M  V30 10 H 76.236500 54.607500 44.125200 0
M  V30 11 H 75.775900 56.267700 44.124500 0
M  V30 12 H 72.392300 55.593300 42.924800 0
M  V30 13 H 73.272200 56.570500 43.941700 0
M  V30 14 H 72.471500 57.877500 41.950300 0
M  V30 15 H 74.169000 57.983300 42.249600 0
M  V30 16 H 71.767700 56.504900 40.035300 0
M  V30 17 H 72.944000 56.245500 38.757000 0
M  V30 18 R 73.889500 53.657300 42.524500 0
M  V30 END ATOM
M  V30 BEGIN BOND
M  V30 1 1 2 1
M  V30 2 1 3 1
M  V30 3 1 4 3
M  V30 4 1 5 4
M  V30 5 1 6 5
M  V30 6 2 7 5
M  V30 7 1 1 8 CFG=3
M  V30 8 1 9 2
M  V30 9 1 10 2
M  V30 10 1 11 2
M  V30 11 1 12 3
M  V30 12 1 13 3
M  V30 13 1 14 4
M  V30 14 1 15 4
M  V30 15 1 16 6
M  V30 16 1 17 6
M  V30 17 1 18 1
M  V30 END BOND
M  V30 END CTAB
M  END
$$$$
R-group 576 (9970-1)
     RDKit          3D

  0  0  0  0  0  0  0  0  0  0999 V3000
M  V30 BEGIN CTAB
M  V30 COUNTS 15 16 0 0 1
M  V30 BEGIN ATOM
M  V30 1 C 73.805200 54.393700 41.924200 0
M  V30 2 C 73.561000 55.342500 40.907400 0
M  V30 3 C 73.924100 56.478200 41.547900 0
M  V30 4 C 73.912800 57.840300 41.194400 0
M  V30 5 C 73.270500 58.302800 39.941100 0
M  V30 6 C 72.703300 58.753700 41.310000 0
M  V30 7 O 74.489000 56.277000 42.730600 0
M  V30 8 N 74.467800 54.921400 42.927600 0
M  V30 9 H 73.095100 55.232100 39.940900 0
M  V30 10 H 74.967300 58.055000 41.325000 0
M  V30 11 H 73.671000 59.086100 39.312200 0
M  V30 12 H 72.858400 57.487700 39.368300 0
M  V30 13 H 71.691200 58.458400 41.551500 0
M  V30 14 H 72.873100 59.729100 41.727200 0
M  V30 15 R 73.504500 52.939800 41.936600 0
M  V30 END ATOM
M  V30 BEGIN BOND
M  V30 1 1 2 1
M  V30 2 2 3 2
M  V30 3 1 4 3
M  V30 4 1 5 4
M  V30 5 1 6 4
M  V30 6 1 6 5
M  V30 7 1 7 3
M  V30 8 2 8 1
M  V30 9 1 8 7
M  V30 10 1 9 2
M  V30 11 1 10 4
M  V30 12 1 11 5
M  V30 13 1 12 5
M  V30 14 1 13 6
M  V30 15 1 14 6
M  V30 16 1 15 1
M  V30 END BOND
M  V30 END CTAB
M  END
$$$$
R-group 577 (7247-1)
     RDKit          3D

  0  0  0  0  0  0  0  0  0  0999 V3000
M  V30 BEGIN CTAB
M  V30 COUNTS 22 22 0 0 1
M  V30 BEGIN ATOM
M  V30 1 O 73.791200 54.634700 42.121900 0
M  V30 2 C 75.127600 55.045800 41.875900 0
M  V30 3 C 75.106800 56.429600 41.249500 0 CFG=1
M  V30 4 C 74.677600 56.403600 39.793400 0
M  V30 5 O 73.312000 56.051400 39.681900 0
M  V30 6 C 72.530700 57.077800 40.258600 0
M  V30 7 C 72.872500 57.268600 41.760700 0
M  V30 8 N 74.288600 57.373900 41.948500 0
M  V30 9 C 74.628300 57.530600 43.321100 0
M  V30 10 H 75.671100 55.056400 42.820700 0
M  V30 11 H 75.672300 54.379900 41.222800 0
M  V30 12 H 76.136600 56.792100 41.267900 0
M  V30 13 H 74.872900 57.351100 39.288800 0
M  V30 14 H 75.271300 55.670300 39.330000 0
M  V30 15 H 72.846100 57.985600 39.731800 0
M  V30 16 H 71.487300 56.859200 40.057400 0
M  V30 17 H 72.434400 58.222000 42.056100 0
M  V30 18 H 72.473500 56.583300 42.524500 0
M  V30 19 H 74.127300 58.415300 43.722000 0
M  V30 20 H 74.255300 56.599400 43.724700 0
M  V30 21 H 75.702100 57.623100 43.478100 0
M  V30 22 R 73.518100 53.253700 42.113200 0
M  V30 END ATOM
M  V30 BEGIN BOND
M  V30 1 1 2 1
M  V30 2 1 3 2
M  V30 3 1 4 3
M  V30 4 1 5 4
M  V30 5 1 6 5
M  V30 6 1 7 6
M  V30 7 1 8 3
M  V30 8 1 8 7
M  V30 9 1 9 8
M  V30 10 1 10 2
M  V30 11 1 11 2
M  V30 12 1 3 12 CFG=3
M  V30 13 1 13 4
M  V30 14 1 14 4
M  V30 15 1 15 6
M  V30 16 1 16 6
M  V30 17 1 17 7
M  V30 18 1 18 7
M  V30 19 1 19 9
M  V30 20 1 20 9
M  V30 21 1 21 9
M  V30 22 1 22 1
M  V30 END BOND
M  V30 END CTAB
M  END
$$$$
R-group 578 (7124-1)
     RDKit          3D

  0  0  0  0  0  0  0  0  0  0999 V3000
M  V30 BEGIN CTAB
M  V30 COUNTS 20 20 0 0 1
M  V30 BEGIN ATOM
M  V30 1 N 74.315000 54.638100 42.381500 0
M  V30 2 C 75.078800 55.167800 43.527400 0
M  V30 3 C 75.495300 56.617900 43.232500 0
M  V30 4 C 74.244500 57.438300 42.872700 0
M  V30 5 C 73.397700 56.749100 41.806500 0 CFG=1
M  V30 6 C 73.905300 56.695900 40.352300 0
M  V30 7 F 75.220600 56.856400 40.259000 0
M  V30 8 F 73.553000 55.598100 39.689700 0
M  V30 9 F 73.279800 57.658200 39.725600 0
M  V30 10 C 73.090700 55.374200 42.326700 0
M  V30 11 H 74.472900 55.121000 44.434200 0
M  V30 12 H 75.984800 54.598600 43.723300 0
M  V30 13 H 76.022600 57.054600 44.082900 0
M  V30 14 H 76.218500 56.633300 42.416500 0
M  V30 15 H 73.588800 57.526100 43.726600 0
M  V30 16 H 74.466800 58.449900 42.622500 0
M  V30 17 H 72.472200 57.308700 41.785900 0
M  V30 18 H 72.470000 54.870400 41.611000 0
M  V30 19 H 72.559700 55.410900 43.277300 0
M  V30 20 R 73.851400 53.251900 42.321700 0
M  V30 END ATOM
M  V30 BEGIN BOND
M  V30 1 1 2 1
M  V30 2 1 3 2
M  V30 3 1 4 3
M  V30 4 1 5 4
M  V30 5 1 6 5
M  V30 6 1 7 6
M  V30 7 1 8 6
M  V30 8 1 9 6
M  V30 9 1 10 1
M  V30 10 1 10 5
M  V30 11 1 11 2
M  V30 12 1 12 2
M  V30 13 1 13 3
M  V30 14 1 14 3
M  V30 15 1 15 4
M  V30 16 1 16 4
M  V30 17 1 5 17 CFG=3
M  V30 18 1 18 10
M  V30 19 1 19 10
M  V30 20 1 20 1
M  V30 END BOND
M  V30 END CTAB
M  END
$$$$
R-group 579 (43522-1)
     RDKit          3D

  0  0  0  0  0  0  0  0  0  0999 V3000
M  V30 BEGIN CTAB
M  V30 COUNTS 16 16 0 0 1
M  V30 BEGIN ATOM
M  V30 1 C 73.925100 54.955400 41.995500 0 CFG=1
M  V30 2 C 74.973100 55.558500 42.713000 0
M  V30 3 N 75.773900 56.074500 43.324000 0
M  V30 4 C 72.664900 55.242000 42.651600 0
M  V30 5 C 72.995100 55.873700 41.265900 0
M  V30 6 C 73.292500 57.374900 41.175500 0
M  V30 7 C 72.076500 55.458100 40.120300 0
M  V30 8 H 72.644800 55.963300 43.475100 0
M  V30 9 H 71.928400 54.435900 42.704500 0
M  V30 10 H 73.663900 57.751100 42.130100 0
M  V30 11 H 72.399700 57.940500 40.933800 0
M  V30 12 H 74.047800 57.600000 40.415800 0
M  V30 13 H 71.787300 54.411600 40.179000 0
M  V30 14 H 71.159200 56.054300 40.077500 0
M  V30 15 H 72.553800 55.627300 39.160500 0
M  V30 16 R 74.154700 53.594300 41.424900 0
M  V30 END ATOM
M  V30 BEGIN BOND
M  V30 1 1 2 1
M  V30 2 3 3 2
M  V30 3 1 4 1
M  V30 4 1 5 1
M  V30 5 1 5 4
M  V30 6 1 6 5
M  V30 7 1 7 5
M  V30 8 1 8 4
M  V30 9 1 9 4
M  V30 10 1 10 6
M  V30 11 1 11 6
M  V30 12 1 12 6
M  V30 13 1 13 7
M  V30 14 1 14 7
M  V30 15 1 15 7
M  V30 16 1 1 16 CFG=3
M  V30 END BOND
M  V30 END CTAB
M  END
$$$$
R-group 580 (27582-1)
     RDKit          3D

  0  0  0  0  0  0  0  0  0  0999 V3000
M  V30 BEGIN CTAB
M  V30 COUNTS 20 19 0 0 1
M  V30 BEGIN ATOM
M  V30 1 C 76.844900 57.740900 41.593000 0
M  V30 2 C 75.626500 56.893500 41.268000 0
M  V30 3 C 75.542100 55.732500 42.272600 0
M  V30 4 N 74.226300 55.229600 42.634300 0
M  V30 5 C 73.116300 56.151000 42.601600 0
M  V30 6 C 73.274800 57.515700 43.272700 0
M  V30 7 C 72.601400 58.499400 42.416300 0
M  V30 8 N 72.072200 59.258000 41.724700 0
M  V30 9 H 77.044100 58.458000 40.802200 0
M  V30 10 H 76.872200 58.224100 42.568300 0
M  V30 11 H 77.672200 57.106100 41.724700 0
M  V30 12 H 75.724500 56.492700 40.259000 0
M  V30 13 H 74.761200 57.546100 41.235900 0
M  V30 14 H 76.046900 55.998200 43.202400 0
M  V30 15 H 76.072200 54.900500 41.834000 0
M  V30 16 H 72.286500 55.648200 43.097300 0
M  V30 17 H 72.872300 56.295900 41.547600 0
M  V30 18 H 74.311500 57.824000 43.396200 0
M  V30 19 H 72.797300 57.520200 44.250300 0
M  V30 20 R 73.861100 53.893300 42.132200 0
M  V30 END ATOM
M  V30 BEGIN BOND
M  V30 1 1 2 1
M  V30 2 1 3 2
M  V30 3 1 4 3
M  V30 4 1 5 4
M  V30 5 1 6 5
M  V30 6 1 7 6
M  V30 7 3 8 7
M  V30 8 1 9 1
M  V30 9 1 10 1
M  V30 10 1 11 1
M  V30 11 1 12 2
M  V30 12 1 13 2
M  V30 13 1 14 3
M  V30 14 1 15 3
M  V30 15 1 16 5
M  V30 16 1 17 5
M  V30 17 1 18 6
M  V30 18 1 19 6
M  V30 19 1 20 4
M  V30 END BOND
M  V30 END CTAB
M  END
$$$$
R-group 581 (29306-4)
     RDKit          3D

  0  0  0  0  0  0  0  0  0  0999 V3000
M  V30 BEGIN CTAB
M  V30 COUNTS 23 23 0 0 1
M  V30 BEGIN ATOM
M  V30 1 C 73.984800 54.334700 42.331800 0 CFG=1
M  V30 2 C 75.313200 54.691500 41.654800 0
M  V30 3 C 75.745300 56.120200 41.871600 0 CFG=2
M  V30 4 C 76.089000 56.322800 43.370400 0
M  V30 5 C 74.636100 57.015100 41.277700 0 CFG=1
M  V30 6 O 74.476900 56.795100 39.885600 0
M  V30 7 C 73.272300 56.762600 41.920000 0 CFG=2
M  V30 8 O 73.272200 57.371700 43.172500 0
M  V30 9 C 72.872300 55.258000 42.013200 0
M  V30 10 H 74.126100 54.470700 43.399100 0
M  V30 11 H 76.047200 54.038300 42.082800 0
M  V30 12 H 75.303100 54.520400 40.588600 0
M  V30 13 H 76.655100 56.300600 41.302100 0
M  V30 14 H 75.277600 56.057200 44.023000 0
M  V30 15 H 76.880500 55.659800 43.726300 0
M  V30 16 H 76.380700 57.351000 43.572200 0
M  V30 17 H 74.916700 58.055800 41.378600 0
M  V30 18 H 72.512600 57.305600 41.353200 0
M  V30 19 H 72.472900 54.985600 41.035100 0
M  V30 20 H 72.130800 55.044500 42.809500 0
M  V30 21 H 73.935800 57.480800 39.520300 0
M  V30 22 H 73.394000 56.692800 43.822400 0
M  V30 23 R 73.567400 52.875000 42.147400 0
M  V30 END ATOM
M  V30 BEGIN BOND
M  V30 1 1 2 1
M  V30 2 1 3 2
M  V30 3 1 4 3
M  V30 4 1 5 3
M  V30 5 1 6 5
M  V30 6 1 7 5
M  V30 7 1 8 7
M  V30 8 1 9 1
M  V30 9 1 9 7
M  V30 10 1 1 10 CFG=1
M  V30 11 1 11 2
M  V30 12 1 12 2
M  V30 13 1 3 13 CFG=3
M  V30 14 1 14 4
M  V30 15 1 15 4
M  V30 16 1 16 4
M  V30 17 1 5 17 CFG=3
M  V30 18 1 7 18 CFG=3
M  V30 19 1 19 9
M  V30 20 1 20 9
M  V30 21 1 21 6
M  V30 22 1 22 8
M  V30 23 1 23 1
M  V30 END BOND
M  V30 END CTAB
M  END
$$$$
R-group 582 (10494-2)
     RDKit          3D

  0  0  0  0  0  0  0  0  0  0999 V3000
M  V30 BEGIN CTAB
M  V30 COUNTS 21 20 0 0 1
M  V30 BEGIN ATOM
M  V30 1 C 72.360500 58.858100 41.548200 0
M  V30 2 C 73.272100 57.658400 41.282000 0
M  V30 3 O 73.401300 57.244900 40.134100 0
M  V30 4 N 73.981000 57.258000 42.338800 0
M  V30 5 C 75.144100 56.402400 42.286400 0 CFG=1
M  V30 6 C 76.196300 56.894100 43.266400 0
M  V30 7 C 74.773100 55.013200 42.717100 0
M  V30 8 C 73.412000 54.483500 42.220800 0
M  V30 9 H 71.495000 58.588800 42.138200 0
M  V30 10 H 72.872100 59.627300 42.122000 0
M  V30 11 H 72.040300 59.302100 40.607500 0
M  V30 12 H 75.560300 56.372500 41.276700 0
M  V30 13 H 76.858200 56.059700 43.596100 0
M  V30 14 H 76.817300 57.674400 42.826300 0
M  V30 15 H 75.679300 57.328900 44.124700 0
M  V30 16 H 74.773700 54.946100 43.806400 0
M  V30 17 H 75.616800 54.422000 42.358400 0
M  V30 18 H 73.144600 54.971900 41.289200 0
M  V30 19 H 72.627200 54.772200 42.920900 0
M  V30 20 H 73.769600 57.686200 43.227800 0
M  V30 21 R 73.377500 52.970000 41.985400 0
M  V30 END ATOM
M  V30 BEGIN BOND
M  V30 1 1 2 1
M  V30 2 2 3 2
M  V30 3 1 4 2
M  V30 4 1 5 4
M  V30 5 1 6 5
M  V30 6 1 7 5
M  V30 7 1 8 7
M  V30 8 1 9 1
M  V30 9 1 10 1
M  V30 10 1 11 1
M  V30 11 1 5 12 CFG=3
M  V30 12 1 13 6
M  V30 13 1 14 6
M  V30 14 1 15 6
M  V30 15 1 16 7
M  V30 16 1 17 7
M  V30 17 1 18 8
M  V30 18 1 19 8
M  V30 19 1 20 4
M  V30 20 1 21 8
M  V30 END BOND
M  V30 END CTAB
M  END
$$$$
R-group 583 (10905-1)
     RDKit          3D

  0  0  0  0  0  0  0  0  0  0999 V3000
M  V30 BEGIN CTAB
M  V30 COUNTS 20 19 0 0 1
M  V30 BEGIN ATOM
M  V30 1 C 72.709800 54.068400 42.511400 0
M  V30 2 C 73.754300 55.120200 42.934000 0
M  V30 3 C 73.268300 56.512100 43.322900 0
M  V30 4 C 74.395800 57.486400 43.033300 0
M  V30 5 C 74.471500 57.651000 41.515500 0
M  V30 6 C 75.910200 57.584700 40.986100 0
M  V30 7 F 76.138600 56.285400 40.924800 0
M  V30 8 H 71.952500 54.455900 41.839000 0
M  V30 9 H 72.123600 53.657600 43.323900 0
M  V30 10 H 74.342500 54.789300 43.782100 0
M  V30 11 H 74.500500 55.171700 42.151500 0
M  V30 12 H 72.472400 56.858400 42.693800 0
M  V30 13 H 72.875500 56.538800 44.341500 0
M  V30 14 H 74.209600 58.457100 43.489000 0
M  V30 15 H 75.338100 57.125100 43.446900 0
M  V30 16 H 73.898300 56.901500 40.963100 0
M  V30 17 H 73.886400 58.530900 41.324900 0
M  V30 18 H 76.072000 57.958200 39.974100 0
M  V30 19 H 76.645200 58.052700 41.646100 0
M  V30 20 R 73.386900 52.933300 41.759500 0
M  V30 END ATOM
M  V30 BEGIN BOND
M  V30 1 1 2 1
M  V30 2 1 3 2
M  V30 3 1 4 3
M  V30 4 1 5 4
M  V30 5 1 6 5
M  V30 6 1 7 6
M  V30 7 1 8 1
M  V30 8 1 9 1
M  V30 9 1 10 2
M  V30 10 1 11 2
M  V30 11 1 12 3
M  V30 12 1 13 3
M  V30 13 1 14 4
M  V30 14 1 15 4
M  V30 15 1 16 5
M  V30 16 1 17 5
M  V30 17 1 18 6
M  V30 18 1 19 6
M  V30 19 1 20 1
M  V30 END BOND
M  V30 END CTAB
M  END
$$$$
R-group 584 (4627-1)
     RDKit          3D

  0  0  0  0  0  0  0  0  0  0999 V3000
M  V30 BEGIN CTAB
M  V30 COUNTS 23 22 0 0 1
M  V30 BEGIN ATOM
M  V30 1 C 74.467900 54.993900 43.038300 0
M  V30 2 C 73.435000 56.071600 43.368200 0
M  V30 3 C 73.874100 57.501400 43.120700 0
M  V30 4 C 73.622400 57.940700 41.698100 0
M  V30 5 C 74.528800 57.257900 40.647100 0
M  V30 6 C 76.072100 57.446700 40.792300 0
M  V30 7 C 73.987700 57.504000 39.249200 0
M  V30 8 H 75.256200 55.320000 42.369000 0
M  V30 9 H 75.022100 54.872400 43.968300 0
M  V30 10 H 73.269200 56.058000 44.438400 0
M  V30 11 H 72.472200 55.850400 42.924800 0
M  V30 12 H 74.911500 57.658800 43.413600 0
M  V30 13 H 73.272700 58.138600 43.765200 0
M  V30 14 H 73.672100 59.017500 41.724800 0
M  V30 15 H 72.580100 57.732200 41.455700 0
M  V30 16 H 74.350200 56.197900 40.742700 0
M  V30 17 H 76.472200 58.436200 40.556600 0
M  V30 18 H 76.589000 56.749300 40.134800 0
M  V30 19 H 76.413400 57.212800 41.798800 0
M  V30 20 H 74.065000 58.542000 38.924700 0
M  V30 21 H 74.498800 56.875100 38.521600 0
M  V30 22 H 72.932900 57.234600 39.188400 0
M  V30 23 R 73.862500 53.651700 42.534400 0
M  V30 END ATOM
M  V30 BEGIN BOND
M  V30 1 1 2 1
M  V30 2 1 3 2
M  V30 3 1 4 3
M  V30 4 1 5 4
M  V30 5 1 6 5
M  V30 6 1 7 5
M  V30 7 1 8 1
M  V30 8 1 9 1
M  V30 9 1 10 2
M  V30 10 1 11 2
M  V30 11 1 12 3
M  V30 12 1 13 3
M  V30 13 1 14 4
M  V30 14 1 15 4
M  V30 15 1 16 5
M  V30 16 1 17 6
M  V30 17 1 18 6
M  V30 18 1 19 6
M  V30 19 1 20 7
M  V30 20 1 21 7
M  V30 21 1 22 7
M  V30 22 1 23 1
M  V30 END BOND
M  V30 END CTAB
M  END
$$$$
R-group 585 (33143-1)
     RDKit          3D

  0  0  0  0  0  0  0  0  0  0999 V3000
M  V30 BEGIN CTAB
M  V30 COUNTS 16 16 0 0 1
M  V30 BEGIN ATOM
M  V30 1 C 77.234900 57.362700 40.752900 0
M  V30 2 O 76.021700 57.657600 41.307200 0
M  V30 3 C 75.127800 56.724800 41.635300 0
M  V30 4 S 75.270300 55.172500 40.925400 0
M  V30 5 C 73.882700 54.609200 41.786600 0
M  V30 6 C 73.340500 55.597500 42.525000 0
M  V30 7 C 74.044700 56.820100 42.448100 0
M  V30 8 C 73.638500 58.046900 43.191800 0
M  V30 9 H 77.674200 58.197900 40.209500 0
M  V30 10 H 77.688300 57.260800 41.724200 0
M  V30 11 H 77.271300 56.473600 40.125800 0
M  V30 12 H 72.472200 55.489200 43.156500 0
M  V30 13 H 73.235200 58.785200 42.500900 0
M  V30 14 H 72.872200 57.819900 43.937100 0
M  V30 15 H 74.498900 58.458300 43.716200 0
M  V30 16 R 73.494300 53.189600 41.799000 0
M  V30 END ATOM
M  V30 BEGIN BOND
M  V30 1 1 2 1
M  V30 2 1 3 2
M  V30 3 1 4 3
M  V30 4 1 5 4
M  V30 5 2 6 5
M  V30 6 2 7 3
M  V30 7 1 7 6
M  V30 8 1 8 7
M  V30 9 1 9 1
M  V30 10 1 10 1
M  V30 11 1 11 1
M  V30 12 1 12 6
M  V30 13 1 13 8
M  V30 14 1 14 8
M  V30 15 1 15 8
M  V30 16 1 16 5
M  V30 END BOND
M  V30 END CTAB
M  END
$$$$
R-group 586 (2406-1)
     RDKit          3D

  0  0  0  0  0  0  0  0  0  0999 V3000
M  V30 BEGIN CTAB
M  V30 COUNTS 16 16 0 0 1
M  V30 BEGIN ATOM
M  V30 1 C 75.281100 57.248100 39.902800 0
M  V30 2 C 75.545700 56.694800 41.282400 0
M  V30 3 O 76.431800 57.159600 41.983300 0
M  V30 4 N 74.684100 55.709400 41.700900 0
M  V30 5 C 74.314300 55.487300 43.079900 0
M  V30 6 C 73.171400 54.675500 42.424700 0
M  V30 7 C 73.295400 55.715300 41.296900 0
M  V30 8 H 74.279700 57.658000 39.836300 0
M  V30 9 H 76.072000 57.984900 39.724800 0
M  V30 10 H 75.272600 56.458000 39.158800 0
M  V30 11 H 73.960000 56.388700 43.581700 0
M  V30 12 H 75.071300 54.967800 43.660200 0
M  V30 13 H 72.221800 54.858200 42.924800 0
M  V30 14 H 73.111500 55.401900 40.271900 0
M  V30 15 H 72.872300 56.702400 41.497000 0
M  V30 16 R 73.321200 53.164100 42.112000 0
M  V30 END ATOM
M  V30 BEGIN BOND
M  V30 1 1 2 1
M  V30 2 2 3 2
M  V30 3 1 4 2
M  V30 4 1 5 4
M  V30 5 1 6 5
M  V30 6 1 7 4
M  V30 7 1 7 6
M  V30 8 1 8 1
M  V30 9 1 9 1
M  V30 10 1 10 1
M  V30 11 1 11 5
M  V30 12 1 12 5
M  V30 13 1 13 6
M  V30 14 1 14 7
M  V30 15 1 15 7
M  V30 16 1 16 6
M  V30 END BOND
M  V30 END CTAB
M  END
$$$$
R-group 587 (17779-1)
     RDKit          3D

  0  0  0  0  0  0  0  0  0  0999 V3000
M  V30 BEGIN CTAB
M  V30 COUNTS 16 16 0 0 1
M  V30 BEGIN ATOM
M  V30 1 S 74.028900 55.165700 41.762500 0
M  V30 2 O 73.672200 55.990700 42.923800 0
M  V30 3 O 75.398400 55.258000 41.266400 0
M  V30 4 C 72.878500 55.570600 40.361600 0 CFG=2
M  V30 5 C 73.556500 55.387900 39.007500 0
M  V30 6 C 74.366300 56.645700 38.890800 0
M  V30 7 O 73.672300 57.609600 39.665700 0
M  V30 8 C 72.572300 57.051400 40.324800 0
M  V30 9 H 71.951200 55.019000 40.481800 0
M  V30 10 H 74.203400 54.558100 38.851200 0
M  V30 11 H 72.872300 55.257800 38.184600 0
M  V30 12 H 75.353400 56.540100 39.324500 0
M  V30 13 H 74.519100 56.857800 37.843800 0
M  V30 14 H 71.671600 57.215600 39.730600 0
M  V30 15 H 72.472300 57.521400 41.302500 0
M  V30 16 R 73.615400 53.371500 42.074500 0
M  V30 END ATOM
M  V30 BEGIN BOND
M  V30 1 2 2 1
M  V30 2 2 3 1
M  V30 3 1 4 1
M  V30 4 1 5 4
M  V30 5 1 6 5
M  V30 6 1 7 6
M  V30 7 1 8 4
M  V30 8 1 8 7
M  V30 9 1 4 9 CFG=3
M  V30 10 1 10 5
M  V30 11 1 11 5
M  V30 12 1 12 6
M  V30 13 1 13 6
M  V30 14 1 14 8
M  V30 15 1 15 8
M  V30 16 1 16 1
M  V30 END BOND
M  V30 END CTAB
M  END
$$$$
R-group 588 (24811-1)
     RDKit          3D

  0  0  0  0  0  0  0  0  0  0999 V3000
M  V30 BEGIN CTAB
M  V30 COUNTS 18 17 0 0 1
M  V30 BEGIN ATOM
M  V30 1 N 73.318900 54.294600 42.060900 0
M  V30 2 C 74.312400 54.968200 41.471700 0
M  V30 3 O 75.271700 54.413300 40.972000 0
M  V30 4 C 74.204400 56.460900 41.266800 0
M  V30 5 C 75.663400 56.990600 41.071000 0
M  V30 6 C 73.410900 56.558500 39.919100 0
M  V30 7 F 74.097500 56.056800 38.920300 0
M  V30 8 F 73.272800 57.828100 39.725300 0
M  V30 9 F 72.220400 55.983300 39.724600 0
M  V30 10 C 73.613000 57.236400 42.504600 0
M  V30 11 F 72.877700 58.287400 42.125200 0
M  V30 12 F 72.878600 56.503400 43.324700 0
M  V30 13 F 74.575500 57.658000 43.309600 0
M  V30 14 H 75.737800 58.057700 41.165700 0
M  V30 15 H 76.337500 56.599200 41.833100 0
M  V30 16 H 76.100900 56.716700 40.114200 0
M  V30 17 H 72.594500 54.817700 42.539400 0
M  V30 18 R 73.226900 52.853600 42.105300 0
M  V30 END ATOM
M  V30 BEGIN BOND
M  V30 1 1 2 1
M  V30 2 2 3 2
M  V30 3 1 4 2
M  V30 4 1 5 4
M  V30 5 1 6 4
M  V30 6 1 7 6
M  V30 7 1 8 6
M  V30 8 1 9 6
M  V30 9 1 10 4
M  V30 10 1 11 10
M  V30 11 1 12 10
M  V30 12 1 13 10
M  V30 13 1 14 5
M  V30 14 1 15 5
M  V30 15 1 16 5
M  V30 16 1 17 1
M  V30 17 1 18 1
M  V30 END BOND
M  V30 END CTAB
M  END
$$$$
R-group 589 (16796-1)
     RDKit          3D

  0  0  0  0  0  0  0  0  0  0999 V3000
M  V30 BEGIN CTAB
M  V30 COUNTS 16 16 0 0 1
M  V30 BEGIN ATOM
M  V30 1 O 73.773700 54.701700 42.354100 0
M  V30 2 C 75.114200 55.160300 42.263300 0
M  V30 3 C 75.057600 56.574900 41.746000 0 CFG=1
M  V30 4 C 74.492300 56.687300 40.322900 0
M  V30 5 N 73.272200 57.432700 40.529100 0
M  V30 6 C 73.243900 57.962700 41.751300 0
M  V30 7 O 72.472100 58.854600 42.111800 0
M  V30 8 N 74.084600 57.299200 42.523400 0
M  V30 9 H 75.600100 55.117700 43.238800 0
M  V30 10 H 75.704300 54.571900 41.579600 0
M  V30 11 H 76.039800 57.049600 41.811200 0
M  V30 12 H 75.167300 57.243000 39.675600 0
M  V30 13 H 74.262300 55.734200 39.859900 0
M  V30 14 H 72.709500 57.779200 39.769400 0
M  V30 15 H 74.204500 57.481700 43.507400 0
M  V30 16 R 73.542400 53.333000 42.109000 0
M  V30 END ATOM
M  V30 BEGIN BOND
M  V30 1 1 2 1
M  V30 2 1 3 2
M  V30 3 1 4 3
M  V30 4 1 5 4
M  V30 5 1 6 5
M  V30 6 2 7 6
M  V30 7 1 8 3
M  V30 8 1 8 6
M  V30 9 1 9 2
M  V30 10 1 10 2
M  V30 11 1 3 11 CFG=3
M  V30 12 1 12 4
M  V30 13 1 13 4
M  V30 14 1 14 5
M  V30 15 1 15 8
M  V30 16 1 16 1
M  V30 END BOND
M  V30 END CTAB
M  END
$$$$
R-group 590 (6395-1)
     RDKit          3D

  0  0  0  0  0  0  0  0  0  0999 V3000
M  V30 BEGIN CTAB
M  V30 COUNTS 15 15 0 0 1
M  V30 BEGIN ATOM
M  V30 1 N 72.983900 54.413700 42.136100 0
M  V30 2 C 73.794800 55.457100 42.344500 0
M  V30 3 O 73.412300 56.468500 42.919500 0
M  V30 4 N 75.007000 55.277600 41.824200 0
M  V30 5 C 76.055200 56.199100 41.651900 0
M  V30 6 C 75.694000 57.592800 41.274500 0
M  V30 7 C 76.302100 57.322300 42.625100 0
M  V30 8 H 76.865600 55.807600 41.062700 0
M  V30 9 H 76.328800 58.050600 40.518000 0
M  V30 10 H 74.624100 57.777300 41.202300 0
M  V30 11 H 75.661400 57.430600 43.499700 0
M  V30 12 H 77.272200 57.790000 42.710000 0
M  V30 13 H 72.064500 54.515800 42.529700 0
M  V30 14 H 75.156800 54.376900 41.399900 0
M  V30 15 R 73.290400 53.107400 41.596400 0
M  V30 END ATOM
M  V30 BEGIN BOND
M  V30 1 1 2 1
M  V30 2 2 3 2
M  V30 3 1 4 2
M  V30 4 1 5 4
M  V30 5 1 6 5
M  V30 6 1 7 5
M  V30 7 1 7 6
M  V30 8 1 8 5
M  V30 9 1 9 6
M  V30 10 1 10 6
M  V30 11 1 11 7
M  V30 12 1 12 7
M  V30 13 1 13 1
M  V30 14 1 14 4
M  V30 15 1 15 1
M  V30 END BOND
M  V30 END CTAB
M  END
$$$$
R-group 591 (20757-2)
     RDKit          3D

  0  0  0  0  0  0  0  0  0  0999 V3000
M  V30 BEGIN CTAB
M  V30 COUNTS 17 16 0 0 1
M  V30 BEGIN ATOM
M  V30 1 C 74.260900 54.610600 42.006700 0 CFG=2
M  V30 2 C 74.118100 55.411300 43.308200 0
M  V30 3 C 73.540300 55.277000 40.857000 0
M  V30 4 S 73.906900 56.979200 40.699600 0
M  V30 5 C 75.753800 57.068700 40.792000 0
M  V30 6 O 73.509500 57.257800 39.325100 0
M  V30 7 O 73.311800 57.738600 41.809300 0
M  V30 8 H 75.323000 54.578300 41.757100 0
M  V30 9 H 73.061500 55.668800 43.383800 0
M  V30 10 H 74.471000 54.896500 44.196400 0
M  V30 11 H 74.686900 56.336500 43.319000 0
M  V30 12 H 73.792700 54.885900 39.882300 0
M  V30 13 H 72.472700 55.185100 40.923900 0
M  V30 14 H 76.116500 58.049200 40.488400 0
M  V30 15 H 76.100800 56.877900 41.802700 0
M  V30 16 H 76.175400 56.313700 40.126100 0
M  V30 17 R 73.737600 53.173000 42.144100 0
M  V30 END ATOM
M  V30 BEGIN BOND
M  V30 1 1 2 1
M  V30 2 1 3 1
M  V30 3 1 4 3
M  V30 4 1 5 4
M  V30 5 2 6 4
M  V30 6 2 7 4
M  V30 7 1 1 8 CFG=3
M  V30 8 1 9 2
M  V30 9 1 10 2
M  V30 10 1 11 2
M  V30 11 1 12 3
M  V30 12 1 13 3
M  V30 13 1 14 5
M  V30 14 1 15 5
M  V30 15 1 16 5
M  V30 16 1 17 1
M  V30 END BOND
M  V30 END CTAB
M  END
$$$$
R-group 592 (3333-3)
     RDKit          3D

  0  0  0  0  0  0  0  0  0  0999 V3000
M  V30 BEGIN CTAB
M  V30 COUNTS 15 15 0 0 1
M  V30 BEGIN ATOM
M  V30 1 N 74.015300 54.537200 42.074800 0
M  V30 2 C 72.880900 55.379300 42.013000 0
M  V30 3 C 72.871300 56.007200 40.584500 0 CFG=2
M  V30 4 F 72.064400 55.384600 39.724200 0
M  V30 5 C 74.304700 55.892700 40.103900 0
M  V30 6 C 75.024100 55.166800 41.249600 0 CFG=1
M  V30 7 C 75.610100 56.124600 42.168800 0
M  V30 8 N 76.033500 56.861600 42.922000 0
M  V30 9 H 73.046800 56.183100 42.732900 0
M  V30 10 H 72.001500 54.850800 42.387900 0
M  V30 11 H 72.542400 57.049600 40.616900 0
M  V30 12 H 74.747600 56.875100 39.927000 0
M  V30 13 H 74.342400 55.352300 39.158400 0
M  V30 14 H 75.788400 54.498400 40.910700 0
M  V30 15 R 73.698200 53.137500 42.002600 0
M  V30 END ATOM
M  V30 BEGIN BOND
M  V30 1 1 2 1
M  V30 2 1 3 2
M  V30 3 1 4 3
M  V30 4 1 5 3
M  V30 5 1 6 1
M  V30 6 1 6 5
M  V30 7 1 7 6
M  V30 8 3 8 7
M  V30 9 1 9 2
M  V30 10 1 10 2
M  V30 11 1 3 11 CFG=1
M  V30 12 1 12 5
M  V30 13 1 13 5
M  V30 14 1 6 14 CFG=3
M  V30 15 1 15 1
M  V30 END BOND
M  V30 END CTAB
M  END
$$$$
R-group 593 (4409-1)
     RDKit          3D

  0  0  0  0  0  0  0  0  0  0999 V3000
M  V30 BEGIN CTAB
M  V30 COUNTS 15 15 0 0 1
M  V30 BEGIN ATOM
M  V30 1 C 73.525900 54.445700 42.924400 0
M  V30 2 C 74.232900 55.500300 42.220600 0
M  V30 3 C 73.673800 55.859300 41.005800 0
M  V30 4 C 74.482100 56.492300 40.120600 0
M  V30 5 F 74.073100 56.564200 38.864700 0
M  V30 6 C 75.732900 56.955100 40.524700 0
M  V30 7 C 76.157100 56.857600 41.829200 0
M  V30 8 C 75.444100 56.057600 42.694700 0
M  V30 9 F 76.045100 55.703500 43.864100 0
M  V30 10 H 72.483200 54.769400 42.926200 0
M  V30 11 H 74.072200 54.521600 43.868400 0
M  V30 12 H 72.724200 55.487100 40.660200 0
M  V30 13 H 76.306100 57.431800 39.726200 0
M  V30 14 H 77.116200 57.266700 42.123800 0
M  V30 15 R 73.584200 53.029900 42.330500 0
M  V30 END ATOM
M  V30 BEGIN BOND
M  V30 1 1 2 1
M  V30 2 2 3 2
M  V30 3 1 4 3
M  V30 4 1 5 4
M  V30 5 2 6 4
M  V30 6 1 7 6
M  V30 7 1 8 2
M  V30 8 2 8 7
M  V30 9 1 9 8
M  V30 10 1 10 1
M  V30 11 1 11 1
M  V30 12 1 12 3
M  V30 13 1 13 6
M  V30 14 1 14 7
M  V30 15 1 15 1
M  V30 END BOND
M  V30 END CTAB
M  END
$$$$
R-group 594 (34072-1)
     RDKit          3D

  0  0  0  0  0  0  0  0  0  0999 V3000
M  V30 BEGIN CTAB
M  V30 COUNTS 19 19 0 0 1
M  V30 BEGIN ATOM
M  V30 1 C 74.460000 56.858400 38.932100 0
M  V30 2 C 73.348300 56.845300 39.946600 0
M  V30 3 O 72.310700 56.238500 39.724700 0
M  V30 4 N 73.672300 57.486100 41.068000 0
M  V30 5 C 73.188200 57.435300 42.409500 0
M  V30 6 C 73.265000 56.049800 43.000400 0 CFG=2
M  V30 7 C 74.539700 55.656300 43.724200 0
M  V30 8 C 74.193700 54.981100 42.431100 0 CFG=1
M  V30 9 H 75.272100 56.252100 39.324600 0
M  V30 10 H 74.110500 56.458000 37.985300 0
M  V30 11 H 74.823000 57.879500 38.812300 0
M  V30 12 H 72.235600 57.953700 42.483300 0
M  V30 13 H 73.861700 58.058800 42.995300 0
M  V30 14 H 72.306500 55.661600 43.332700 0
M  V30 15 H 74.472300 55.098600 44.652100 0
M  V30 16 H 75.390600 56.334600 43.680400 0
M  V30 17 H 74.906600 55.255600 41.659300 0
M  V30 18 H 74.554400 57.971100 41.004000 0
M  V30 19 R 73.720600 53.538000 42.307100 0
M  V30 END ATOM
M  V30 BEGIN BOND
M  V30 1 1 2 1
M  V30 2 2 3 2
M  V30 3 1 4 2
M  V30 4 1 5 4
M  V30 5 1 6 5
M  V30 6 1 7 6
M  V30 7 1 8 6
M  V30 8 1 8 7
M  V30 9 1 9 1
M  V30 10 1 10 1
M  V30 11 1 11 1
M  V30 12 1 12 5
M  V30 13 1 13 5
M  V30 14 1 6 14 CFG=1
M  V30 15 1 15 7
M  V30 16 1 16 7
M  V30 17 1 8 17 CFG=3
M  V30 18 1 18 4
M  V30 19 1 19 8
M  V30 END BOND
M  V30 END CTAB
M  END
$$$$
R-group 595 (3267-1)
     RDKit          3D

  0  0  0  0  0  0  0  0  0  0999 V3000
M  V30 BEGIN CTAB
M  V30 COUNTS 16 16 0 0 1
M  V30 BEGIN ATOM
M  V30 1 C 73.597500 54.864300 41.629100 0 CFG=1
M  V30 2 C 75.074100 55.239200 41.958200 0
M  V30 3 C 75.451900 56.398000 41.062800 0
M  V30 4 N 74.335600 56.466800 40.138500 0
M  V30 5 C 74.366900 57.405400 39.050500 0
M  V30 6 C 73.345100 55.685300 40.416500 0
M  V30 7 O 72.276500 55.662700 39.740700 0
M  V30 8 H 72.976600 55.266300 42.448000 0
M  V30 9 H 75.217600 55.448500 43.016800 0
M  V30 10 H 75.753700 54.434500 41.698900 0
M  V30 11 H 76.401200 56.216100 40.540600 0
M  V30 12 H 75.527200 57.321200 41.636400 0
M  V30 13 H 74.444700 56.837100 38.103600 0
M  V30 14 H 73.442300 58.021800 39.025000 0
M  V30 15 H 75.288400 58.095000 39.312500 0
M  V30 16 R 73.336800 53.326000 41.532700 0
M  V30 END ATOM
M  V30 BEGIN BOND
M  V30 1 1 2 1
M  V30 2 1 3 2
M  V30 3 1 4 3
M  V30 4 1 5 4
M  V30 5 1 6 1
M  V30 6 1 6 4
M  V30 7 2 7 6
M  V30 8 1 1 8 CFG=1
M  V30 9 1 9 2
M  V30 10 1 10 2
M  V30 11 1 11 3
M  V30 12 1 12 3
M  V30 13 1 13 5
M  V30 14 1 14 5
M  V30 15 1 15 5
M  V30 16 1 16 1
M  V30 END BOND
M  V30 END CTAB
M  END
$$$$
R-group 596 (42267-1)
     RDKit          3D

  0  0  0  0  0  0  0  0  0  0999 V3000
M  V30 BEGIN CTAB
M  V30 COUNTS 18 17 0 0 1
M  V30 BEGIN ATOM
M  V30 1 C 73.836400 56.146100 38.760900 0
M  V30 2 C 73.619700 57.274700 39.763200 0
M  V30 3 C 74.210800 56.983000 41.162300 0 CFG=1
M  V30 4 N 73.672300 55.690400 41.534500 0
M  V30 5 C 74.078300 54.826900 42.460100 0
M  V30 6 O 74.872000 55.125300 43.346100 0
M  V30 7 C 75.739800 56.858000 41.251900 0
M  V30 8 F 76.087500 57.072700 42.508700 0
M  V30 9 F 76.072200 55.658300 40.854500 0
M  V30 10 F 76.472400 57.658000 40.524800 0
M  V30 11 H 73.672300 56.458000 37.743900 0
M  V30 12 H 74.871400 55.861700 38.821300 0
M  V30 13 H 73.208300 55.277300 38.944500 0
M  V30 14 H 72.548600 57.451700 39.858800 0
M  V30 15 H 74.028700 58.176400 39.324600 0
M  V30 16 H 73.865000 57.749900 41.857000 0
M  V30 17 H 73.014600 55.316100 40.869100 0
M  V30 18 R 73.638900 53.371200 42.299700 0
M  V30 END ATOM
M  V30 BEGIN BOND
M  V30 1 1 2 1
M  V30 2 1 3 2
M  V30 3 1 4 3
M  V30 4 1 5 4
M  V30 5 2 6 5
M  V30 6 1 7 3
M  V30 7 1 8 7
M  V30 8 1 9 7
M  V30 9 1 10 7
M  V30 10 1 11 1
M  V30 11 1 12 1
M  V30 12 1 13 1
M  V30 13 1 14 2
M  V30 14 1 15 2
M  V30 15 1 3 16 CFG=1
M  V30 16 1 17 4
M  V30 17 1 18 5
M  V30 END BOND
M  V30 END CTAB
M  END
$$$$
R-group 597 (37778-2)
     RDKit          3D

  0  0  0  0  0  0  0  0  0  0999 V3000
M  V30 BEGIN CTAB
M  V30 COUNTS 15 15 0 0 1
M  V30 BEGIN ATOM
M  V30 1 C 74.183000 54.744000 42.192900 0 CFG=2
M  V30 2 C 73.722700 55.658600 43.321300 0
M  V30 3 C 73.964800 55.396700 40.895000 0
M  V30 4 N 72.873000 55.382000 40.129700 0
M  V30 5 C 73.050400 56.458900 39.324700 0
M  V30 6 C 74.332200 56.905500 39.437100 0
M  V30 7 N 74.876300 56.270600 40.508900 0
M  V30 8 H 75.272600 54.726100 42.296400 0
M  V30 9 H 74.128700 56.666100 43.222200 0
M  V30 10 H 72.636700 55.738800 43.325000 0
M  V30 11 H 74.095900 55.260300 44.259700 0
M  V30 12 H 72.278100 56.790200 38.646200 0
M  V30 13 H 74.859800 57.695600 38.924500 0
M  V30 14 H 75.764600 56.460800 40.946600 0
M  V30 15 R 73.690700 53.284700 42.286300 0
M  V30 END ATOM
M  V30 BEGIN BOND
M  V30 1 1 2 1
M  V30 2 1 3 1
M  V30 3 2 4 3
M  V30 4 1 5 4
M  V30 5 2 6 5
M  V30 6 1 7 3
M  V30 7 1 7 6
M  V30 8 1 1 8 CFG=1
M  V30 9 1 9 2
M  V30 10 1 10 2
M  V30 11 1 11 2
M  V30 12 1 12 5
M  V30 13 1 13 6
M  V30 14 1 14 7
M  V30 15 1 15 1
M  V30 END BOND
M  V30 END CTAB
M  END
$$$$
R-group 598 (40100-1)
     RDKit          3D

  0  0  0  0  0  0  0  0  0  0999 V3000
M  V30 BEGIN CTAB
M  V30 COUNTS 14 14 0 0 1
M  V30 BEGIN ATOM
M  V30 1 C 72.918600 58.070600 40.503100 0
M  V30 2 C 73.807200 57.797900 41.724000 0
M  V30 3 N 74.086200 56.442800 41.942600 0
M  V30 4 C 73.672200 55.346600 41.261000 0
M  V30 5 C 74.026200 54.365900 42.116700 0
M  V30 6 N 74.872600 54.891000 43.086700 0
M  V30 7 N 74.947800 56.147800 42.924600 0
M  V30 8 H 72.472800 59.065300 40.534800 0
M  V30 9 H 73.485900 57.971300 39.575600 0
M  V30 10 H 72.092900 57.373000 40.443100 0
M  V30 11 H 73.387600 58.221400 42.637800 0
M  V30 12 H 74.838300 58.053600 41.618700 0
M  V30 13 H 73.052500 55.359600 40.378900 0
M  V30 14 R 73.639600 52.940500 42.064500 0
M  V30 END ATOM
M  V30 BEGIN BOND
M  V30 1 1 2 1
M  V30 2 1 3 2
M  V30 3 1 4 3
M  V30 4 2 5 4
M  V30 5 1 6 5
M  V30 6 1 7 3
M  V30 7 2 7 6
M  V30 8 1 8 1
M  V30 9 1 9 1
M  V30 10 1 10 1
M  V30 11 1 11 2
M  V30 12 1 12 2
M  V30 13 1 13 4
M  V30 14 1 14 5
M  V30 END BOND
M  V30 END CTAB
M  END
$$$$
R-group 599 (3195-1)
     RDKit          3D

  0  0  0  0  0  0  0  0  0  0999 V3000
M  V30 BEGIN CTAB
M  V30 COUNTS 24 24 0 0 1
M  V30 BEGIN ATOM
M  V30 1 C 74.076800 54.464100 42.770600 0
M  V30 2 C 73.015300 55.463600 42.497800 0
M  V30 3 C 73.385200 56.924400 42.794000 0
M  V30 4 C 74.215500 57.649700 41.752300 0
M  V30 5 C 75.733100 57.258000 41.743800 0
M  V30 6 C 76.133500 57.336800 40.291100 0
M  V30 7 C 74.863300 57.019000 39.498600 0
M  V30 8 C 73.673100 57.523700 40.309900 0
M  V30 9 H 74.410100 54.586700 43.802800 0
M  V30 10 H 74.944900 54.621800 42.155400 0
M  V30 11 H 72.869800 55.268000 41.445100 0
M  V30 12 H 72.096500 55.198200 43.019300 0
M  V30 13 H 72.498400 57.525300 42.941700 0
M  V30 14 H 73.903700 56.992600 43.724400 0
M  V30 15 H 74.071800 58.691900 42.017100 0
M  V30 16 H 76.449100 57.798700 42.379500 0
M  V30 17 H 75.926600 56.257600 42.080900 0
M  V30 18 H 76.489800 58.341900 40.060500 0
M  V30 19 H 76.943100 56.634300 40.124800 0
M  V30 20 H 74.871700 57.492700 38.525400 0
M  V30 21 H 74.767700 55.945400 39.335600 0
M  V30 22 H 72.817200 56.867400 40.176100 0
M  V30 23 H 73.278800 58.480400 39.954500 0
M  V30 24 R 73.622400 53.061300 42.392400 0
M  V30 END ATOM
M  V30 BEGIN BOND
M  V30 1 1 2 1
M  V30 2 1 3 2
M  V30 3 1 4 3
M  V30 4 1 5 4
M  V30 5 1 6 5
M  V30 6 1 7 6
M  V30 7 1 8 4
M  V30 8 1 8 7
M  V30 9 1 9 1
M  V30 10 1 10 1
M  V30 11 1 11 2
M  V30 12 1 12 2
M  V30 13 1 13 3
M  V30 14 1 14 3
M  V30 15 1 15 4
M  V30 16 1 16 5
M  V30 17 1 17 5
M  V30 18 1 18 6
M  V30 19 1 19 6
M  V30 20 1 20 7
M  V30 21 1 21 7
M  V30 22 1 22 8
M  V30 23 1 23 8
M  V30 24 1 24 1
M  V30 END BOND
M  V30 END CTAB
M  END
$$$$
R-group 600 (31390-1)
     RDKit          3D

  0  0  0  0  0  0  0  0  0  0999 V3000
M  V30 BEGIN CTAB
M  V30 COUNTS 16 16 0 0 1
M  V30 BEGIN ATOM
M  V30 1 C 73.133800 54.294200 42.524800 0
M  V30 2 C 74.241700 55.270000 43.021400 0
M  V30 3 C 73.678400 56.604300 42.924700 0
M  V30 4 N 73.272200 57.663700 42.829500 0
M  V30 5 C 75.029300 55.069200 44.341200 0
M  V30 6 C 76.118100 55.973900 43.783300 0
M  V30 7 C 75.640300 55.458700 42.397700 0
M  V30 8 H 72.457200 53.917100 43.291700 0
M  V30 9 H 72.472900 54.840000 41.863200 0
M  V30 10 H 75.568200 54.158800 44.488000 0
M  V30 11 H 74.516000 55.258100 45.280000 0
M  V30 12 H 77.104200 55.658000 44.124800 0
M  V30 13 H 75.973800 57.044200 43.944100 0
M  V30 14 H 75.704700 56.196700 41.596000 0
M  V30 15 H 76.072100 54.520000 42.076700 0
M  V30 16 R 73.555500 53.069900 41.751500 0
M  V30 END ATOM
M  V30 BEGIN BOND
M  V30 1 1 2 1
M  V30 2 1 3 2
M  V30 3 3 4 3
M  V30 4 1 5 2
M  V30 5 1 6 5
M  V30 6 1 7 2
M  V30 7 1 7 6
M  V30 8 1 8 1
M  V30 9 1 9 1
M  V30 10 1 10 5
M  V30 11 1 11 5
M  V30 12 1 12 6
M  V30 13 1 13 6
M  V30 14 1 14 7
M  V30 15 1 15 7
M  V30 16 1 16 1
M  V30 END BOND
M  V30 END CTAB
M  END
$$$$
R-group 601 (37893-2)
     RDKit          3D

  0  0  0  0  0  0  0  0  0  0999 V3000
M  V30 BEGIN CTAB
M  V30 COUNTS 22 22 0 0 1
M  V30 BEGIN ATOM
M  V30 1 C 72.891700 53.982400 42.515300 0
M  V30 2 C 74.058000 54.929900 42.923400 0
M  V30 3 C 73.690700 56.393100 42.843600 0 CFG=1
M  V30 4 C 72.580600 56.700000 43.871600 0
M  V30 5 C 74.945000 57.252200 42.971700 0
M  V30 6 C 75.448900 57.292900 41.533400 0
M  V30 7 C 74.129100 57.475600 40.799000 0
M  V30 8 O 73.278800 56.619900 41.493200 0
M  V30 9 H 72.165800 54.458400 41.861200 0
M  V30 10 H 72.278200 53.623300 43.324400 0
M  V30 11 H 74.456200 54.708100 43.914700 0
M  V30 12 H 74.904300 54.761200 42.262200 0
M  V30 13 H 72.872400 56.457800 44.889000 0
M  V30 14 H 72.288100 57.750100 43.850700 0
M  V30 15 H 71.709300 56.056600 43.724400 0
M  V30 16 H 74.618400 58.225300 43.324900 0
M  V30 17 H 75.676800 56.862300 43.678000 0
M  V30 18 H 76.187100 58.061200 41.323600 0
M  V30 19 H 75.913700 56.350300 41.250500 0
M  V30 20 H 73.673000 58.458400 40.927200 0
M  V30 21 H 74.181300 57.235300 39.735900 0
M  V30 22 R 73.425400 52.797300 41.761100 0
M  V30 END ATOM
M  V30 BEGIN BOND
M  V30 1 1 2 1
M  V30 2 1 3 2 CFG=3
M  V30 3 1 4 3
M  V30 4 1 5 3
M  V30 5 1 6 5
M  V30 6 1 7 6
M  V30 7 1 8 3
M  V30 8 1 8 7
M  V30 9 1 9 1
M  V30 10 1 10 1
M  V30 11 1 11 2
M  V30 12 1 12 2
M  V30 13 1 13 4
M  V30 14 1 14 4
M  V30 15 1 15 4
M  V30 16 1 16 5
M  V30 17 1 17 5
M  V30 18 1 18 6
M  V30 19 1 19 6
M  V30 20 1 20 7
M  V30 21 1 21 7
M  V30 22 1 22 1
M  V30 END BOND
M  V30 END CTAB
M  END
$$$$
R-group 602 (28919-2)
     RDKit          3D

  0  0  0  0  0  0  0  0  0  0999 V3000
M  V30 BEGIN CTAB
M  V30 COUNTS 17 17 0 0 1
M  V30 BEGIN ATOM
M  V30 1 C 74.971300 55.555700 42.036900 0 CFG=2
M  V30 2 C 74.446600 56.318000 43.260000 0
M  V30 3 C 73.314000 57.312800 42.965700 0
M  V30 4 C 73.148500 57.913300 41.801500 0
M  V30 5 C 73.769000 57.348000 40.549800 0
M  V30 6 C 75.028700 56.509600 40.815800 0 CFG=1
M  V30 7 O 76.162800 57.257800 41.022000 0
M  V30 8 H 76.022500 55.282500 42.228900 0
M  V30 9 H 74.138600 55.637900 44.045900 0
M  V30 10 H 75.268800 56.922000 43.633300 0
M  V30 11 H 72.676500 57.553000 43.816900 0
M  V30 12 H 72.276600 58.578000 41.705600 0
M  V30 13 H 73.845500 58.055300 39.723200 0
M  V30 14 H 73.032200 56.630200 40.220400 0
M  V30 15 H 75.291200 56.056500 39.877600 0
M  V30 16 H 76.864600 56.666800 41.213200 0
M  V30 17 R 74.185700 54.219100 41.868100 0
M  V30 END ATOM
M  V30 BEGIN BOND
M  V30 1 1 2 1
M  V30 2 1 3 2
M  V30 3 2 4 3
M  V30 4 1 5 4
M  V30 5 1 6 1
M  V30 6 1 6 5
M  V30 7 1 7 6
M  V30 8 1 1 8 CFG=1
M  V30 9 1 9 2
M  V30 10 1 10 2
M  V30 11 1 11 3
M  V30 12 1 12 4
M  V30 13 1 13 5
M  V30 14 1 14 5
M  V30 15 1 6 15 CFG=3
M  V30 16 1 16 7
M  V30 17 1 17 1
M  V30 END BOND
M  V30 END CTAB
M  END
$$$$
R-group 603 (26958-1)
     RDKit          3D

  0  0  0  0  0  0  0  0  0  0999 V3000
M  V30 BEGIN CTAB
M  V30 COUNTS 15 15 0 0 1
M  V30 BEGIN ATOM
M  V30 1 C 74.449900 55.741300 41.837600 0 CFG=1
M  V30 2 C 75.915300 55.951000 41.427100 0
M  V30 3 C 74.205300 56.433100 43.200100 0
M  V30 4 N 73.542700 57.665200 42.842300 0
M  V30 5 C 73.270300 57.658000 41.540200 0
M  V30 6 O 72.503000 58.455300 41.017400 0
M  V30 7 N 73.816000 56.654400 40.924700 0
M  V30 8 H 76.472200 55.462700 42.158900 0
M  V30 9 H 76.270300 55.447700 40.537800 0
M  V30 10 H 76.228200 57.017600 41.442500 0
M  V30 11 H 73.605700 55.859800 43.894700 0
M  V30 12 H 75.141500 56.709900 43.664600 0
M  V30 13 H 73.051700 58.259100 43.501400 0
M  V30 14 H 73.602500 56.423700 39.972400 0
M  V30 15 R 73.802100 54.278300 41.784000 0
M  V30 END ATOM
M  V30 BEGIN BOND
M  V30 1 1 2 1
M  V30 2 1 3 1
M  V30 3 1 4 3
M  V30 4 1 5 4
M  V30 5 2 6 5
M  V30 6 1 7 1
M  V30 7 1 7 5
M  V30 8 1 8 2
M  V30 9 1 9 2
M  V30 10 1 10 2
M  V30 11 1 11 3
M  V30 12 1 12 3
M  V30 13 1 13 4
M  V30 14 1 14 7
M  V30 15 1 1 15 CFG=1
M  V30 END BOND
M  V30 END CTAB
M  END
$$$$
R-group 604 (11078-1)
     RDKit          3D

  0  0  0  0  0  0  0  0  0  0999 V3000
M  V30 BEGIN CTAB
M  V30 COUNTS 22 22 0 0 1
M  V30 BEGIN ATOM
M  V30 1 C 74.402400 54.987000 42.540800 0 CFG=2
M  V30 2 C 75.239500 55.313700 43.792800 0
M  V30 3 C 73.272200 56.012400 42.512800 0
M  V30 4 C 73.036000 56.656800 41.135700 0 CFG=1
M  V30 5 C 74.072500 57.658200 40.909000 0
M  V30 6 C 74.239800 57.655700 39.410200 0
M  V30 7 C 73.341800 56.546500 38.906800 0
M  V30 8 O 73.140700 55.765800 40.050100 0
M  V30 9 H 75.084500 55.161200 41.710400 0
M  V30 10 H 74.632700 55.257800 44.694700 0
M  V30 11 H 76.072300 54.643400 43.932900 0
M  V30 12 H 75.665200 56.316000 43.724700 0
M  V30 13 H 72.395100 55.524700 42.924800 0
M  V30 14 H 73.445500 56.823900 43.221500 0
M  V30 15 H 72.127800 57.257900 41.010200 0
M  V30 16 H 73.672400 58.586900 41.325100 0
M  V30 17 H 75.018000 57.441300 41.409500 0
M  V30 18 H 74.048200 58.614400 38.924700 0
M  V30 19 H 75.272300 57.369400 39.324500 0
M  V30 20 H 72.388900 56.940200 38.551900 0
M  V30 21 H 73.809600 55.954600 38.124600 0
M  V30 22 R 73.842000 53.523400 42.429700 0
M  V30 END ATOM
M  V30 BEGIN BOND
M  V30 1 1 2 1
M  V30 2 1 3 1
M  V30 3 1 4 3
M  V30 4 1 5 4
M  V30 5 1 6 5
M  V30 6 1 7 6
M  V30 7 1 8 4
M  V30 8 1 8 7
M  V30 9 1 1 9 CFG=3
M  V30 10 1 10 2
M  V30 11 1 11 2
M  V30 12 1 12 2
M  V30 13 1 13 3
M  V30 14 1 14 3
M  V30 15 1 4 15 CFG=1
M  V30 16 1 16 5
M  V30 17 1 17 5
M  V30 18 1 18 6
M  V30 19 1 19 6
M  V30 20 1 20 7
M  V30 21 1 21 7
M  V30 22 1 22 1
M  V30 END BOND
M  V30 END CTAB
M  END
$$$$
R-group 605 (6619-1)
     RDKit          3D

  0  0  0  0  0  0  0  0  0  0999 V3000
M  V30 BEGIN CTAB
M  V30 COUNTS 15 14 0 0 1
M  V30 BEGIN ATOM
M  V30 1 C 74.583800 55.017500 42.925200 0
M  V30 2 C 73.852400 56.343300 42.706200 0
M  V30 3 N 73.672200 56.614200 41.300600 0
M  V30 4 C 74.608700 56.713000 40.373600 0
M  V30 5 O 75.797900 56.856600 40.640000 0
M  V30 6 C 74.101600 56.616000 38.940300 0
M  V30 7 F 73.672200 55.378600 38.715800 0
M  V30 8 H 74.781500 55.005100 43.996900 0
M  V30 9 H 75.574800 55.064900 42.473100 0
M  V30 10 H 72.878700 56.318700 43.197100 0
M  V30 11 H 74.413800 57.164400 43.155000 0
M  V30 12 H 73.238100 57.258600 38.795900 0
M  V30 13 H 72.724500 56.541600 40.963900 0
M  V30 14 H 74.865200 56.856300 38.207200 0
M  V30 15 R 73.892700 53.676000 42.513200 0
M  V30 END ATOM
M  V30 BEGIN BOND
M  V30 1 1 2 1
M  V30 2 1 3 2
M  V30 3 1 4 3
M  V30 4 2 5 4
M  V30 5 1 6 4
M  V30 6 1 7 6
M  V30 7 1 8 1
M  V30 8 1 9 1
M  V30 9 1 10 2
M  V30 10 1 11 2
M  V30 11 1 12 6
M  V30 12 1 13 3
M  V30 13 1 14 6
M  V30 14 1 15 1
M  V30 END BOND
M  V30 END CTAB
M  END
$$$$
R-group 606 (27614-1)
     RDKit          3D

  0  0  0  0  0  0  0  0  0  0999 V3000
M  V30 BEGIN CTAB
M  V30 COUNTS 14 13 0 0 1
M  V30 BEGIN ATOM
M  V30 1 C 76.077800 56.893300 40.881700 0
M  V30 2 C 75.484400 55.471400 41.047600 0
M  V30 3 C 74.053600 55.308100 41.570800 0 CFG=2
M  V30 4 F 73.286700 55.946300 40.676700 0
M  V30 5 C 73.960400 56.013600 42.896400 0
M  V30 6 F 74.742800 55.310900 43.717600 0
M  V30 7 F 74.363600 57.261700 42.880300 0
M  V30 8 F 72.740900 56.057800 43.324500 0
M  V30 9 H 76.885500 56.869500 40.138700 0
M  V30 10 H 75.367000 57.658000 40.580300 0
M  V30 11 H 76.528900 57.224300 41.815500 0
M  V30 12 H 76.077100 54.898000 41.723800 0
M  V30 13 H 75.623500 54.966900 40.113500 0
M  V30 14 R 73.603400 53.783400 41.679100 0
M  V30 END ATOM
M  V30 BEGIN BOND
M  V30 1 1 2 1
M  V30 2 1 3 2
M  V30 3 1 4 3
M  V30 4 1 5 3
M  V30 5 1 6 5
M  V30 6 1 7 5
M  V30 7 1 8 5
M  V30 8 1 9 1
M  V30 9 1 10 1
M  V30 10 1 11 1
M  V30 11 1 12 2
M  V30 12 1 13 2
M  V30 13 1 3 14 CFG=1
M  V30 END BOND
M  V30 END CTAB
M  END
$$$$
R-group 607 (2173-1)
     RDKit          3D

  0  0  0  0  0  0  0  0  0  0999 V3000
M  V30 BEGIN CTAB
M  V30 COUNTS 18 18 0 0 1
M  V30 BEGIN ATOM
M  V30 1 S 73.954500 54.986200 41.721600 0
M  V30 2 O 73.687000 55.787800 42.923700 0
M  V30 3 O 75.272400 55.101500 41.102500 0
M  V30 4 C 72.730100 55.442700 40.405400 0
M  V30 5 C 72.559600 56.960200 40.415400 0
M  V30 6 C 73.782100 57.457300 39.675300 0
M  V30 7 C 73.883600 56.460600 38.539300 0
M  V30 8 C 73.226800 55.176200 38.977400 0
M  V30 9 H 71.788400 54.905300 40.533800 0
M  V30 10 H 71.672400 57.185200 39.841300 0
M  V30 11 H 72.472300 57.411800 41.404400 0
M  V30 12 H 73.671400 58.479700 39.323400 0
M  V30 13 H 74.667200 57.395700 40.306100 0
M  V30 14 H 73.271800 56.852000 37.775000 0
M  V30 15 H 74.872300 56.368200 38.126200 0
M  V30 16 H 73.932600 54.392300 38.830700 0
M  V30 17 H 72.390700 54.857200 38.350700 0
M  V30 18 R 73.595800 53.201000 42.054900 0
M  V30 END ATOM
M  V30 BEGIN BOND
M  V30 1 2 2 1
M  V30 2 2 3 1
M  V30 3 1 4 1
M  V30 4 1 5 4
M  V30 5 1 6 5
M  V30 6 1 7 6
M  V30 7 1 8 4
M  V30 8 1 8 7
M  V30 9 1 9 4
M  V30 10 1 10 5
M  V30 11 1 11 5
M  V30 12 1 12 6
M  V30 13 1 13 6
M  V30 14 1 14 7
M  V30 15 1 15 7
M  V30 16 1 16 8
M  V30 17 1 17 8
M  V30 18 1 18 1
M  V30 END BOND
M  V30 END CTAB
M  END
$$$$
R-group 608 (7563-1)
     RDKit          3D

  0  0  0  0  0  0  0  0  0  0999 V3000
M  V30 BEGIN CTAB
M  V30 COUNTS 17 17 0 0 1
M  V30 BEGIN ATOM
M  V30 1 S 74.228300 55.566100 41.834400 0
M  V30 2 O 73.589800 56.312700 42.924700 0
M  V30 3 O 75.672200 55.658000 41.685400 0
M  V30 4 N 73.644700 56.161100 40.336700 0
M  V30 5 C 72.472300 57.009000 40.265500 0
M  V30 6 C 71.258700 56.195000 39.724700 0
M  V30 7 C 69.821100 56.654900 39.457600 0
M  V30 8 C 70.735500 56.402300 38.319900 0
M  V30 9 H 72.290700 57.451200 41.238200 0
M  V30 10 H 72.780900 57.883600 39.724700 0
M  V30 11 H 71.221600 55.190700 40.124700 0
M  V30 12 H 69.010000 55.933500 39.493300 0
M  V30 13 H 69.499600 57.658000 39.668800 0
M  V30 14 H 71.090200 57.258000 37.759900 0
M  V30 15 H 70.472300 55.529300 37.724700 0
M  V30 16 H 74.372200 56.358500 39.650500 0
M  V30 17 R 73.701300 53.766100 41.892700 0
M  V30 END ATOM
M  V30 BEGIN BOND
M  V30 1 2 2 1
M  V30 2 2 3 1
M  V30 3 1 4 1
M  V30 4 1 5 4
M  V30 5 1 6 5
M  V30 6 1 7 6
M  V30 7 1 8 6
M  V30 8 1 8 7
M  V30 9 1 9 5
M  V30 10 1 10 5
M  V30 11 1 11 6
M  V30 12 1 12 7
M  V30 13 1 13 7
M  V30 14 1 14 8
M  V30 15 1 15 8
M  V30 16 1 16 4
M  V30 17 1 17 1
M  V30 END BOND
M  V30 END CTAB
M  END
$$$$
R-group 609 (5166-2)
     RDKit          3D

  0  0  0  0  0  0  0  0  0  0999 V3000
M  V30 BEGIN CTAB
M  V30 COUNTS 20 20 0 0 1
M  V30 BEGIN ATOM
M  V30 1 N 73.539700 54.572900 41.967700 0
M  V30 2 C 74.483400 55.232300 41.284800 0
M  V30 3 O 75.272000 54.701100 40.526000 0
M  V30 4 C 74.562700 56.726700 41.456300 0 CFG=2
M  V30 5 C 74.389900 57.152700 42.925500 0
M  V30 6 N 73.272300 58.056500 42.899600 0
M  V30 7 C 72.872100 58.363800 41.690600 0
M  V30 8 O 72.072100 59.258000 41.464900 0
M  V30 9 C 73.508400 57.477900 40.616100 0 CFG=2
M  V30 10 C 72.480900 56.695800 39.737700 0
M  V30 11 H 75.556900 57.041800 41.130200 0
M  V30 12 H 74.162800 56.325800 43.598400 0
M  V30 13 H 75.277800 57.657800 43.308400 0
M  V30 14 H 74.071100 58.038700 39.872700 0
M  V30 15 H 71.571000 57.257800 39.547000 0
M  V30 16 H 72.927300 56.478900 38.766900 0
M  V30 17 H 72.135600 55.744400 40.131300 0
M  V30 18 H 72.949400 55.101900 42.595600 0
M  V30 19 H 72.939600 58.526400 43.728200 0
M  V30 20 R 73.348000 53.142600 41.990700 0
M  V30 END ATOM
M  V30 BEGIN BOND
M  V30 1 1 2 1
M  V30 2 2 3 2
M  V30 3 1 4 2
M  V30 4 1 5 4
M  V30 5 1 6 5
M  V30 6 1 7 6
M  V30 7 2 8 7
M  V30 8 1 9 4
M  V30 9 1 9 7
M  V30 10 1 10 9
M  V30 11 1 4 11 CFG=3
M  V30 12 1 12 5
M  V30 13 1 13 5
M  V30 14 1 9 14 CFG=3
M  V30 15 1 15 10
M  V30 16 1 16 10
M  V30 17 1 17 10
M  V30 18 1 18 1
M  V30 19 1 19 6
M  V30 20 1 20 1
M  V30 END BOND
M  V30 END CTAB
M  END
$$$$
R-group 610 (22858-1)
     RDKit          3D

  0  0  0  0  0  0  0  0  0  0999 V3000
M  V30 BEGIN CTAB
M  V30 COUNTS 15 14 0 0 1
M  V30 BEGIN ATOM
M  V30 1 S 74.697600 55.489600 42.621400 0
M  V30 2 O 75.672200 55.509700 43.724700 0
M  V30 3 O 75.038800 56.090200 41.323300 0
M  V30 4 C 73.194600 56.260900 43.291400 0
M  V30 5 C 73.035100 57.764200 43.108800 0
M  V30 6 C 73.291600 58.388200 41.747100 0
M  V30 7 O 72.872300 57.657000 40.618500 0
M  V30 8 H 72.362300 55.691700 42.924700 0
M  V30 9 H 73.226000 56.058000 44.355000 0
M  V30 10 H 72.072300 58.058000 43.516200 0
M  V30 11 H 73.790400 58.225300 43.724600 0
M  V30 12 H 72.872300 59.392100 41.724700 0
M  V30 13 H 74.370100 58.458000 41.717400 0
M  V30 14 H 73.500700 56.954200 40.500300 0
M  V30 15 R 74.006800 53.771100 42.348700 0
M  V30 END ATOM
M  V30 BEGIN BOND
M  V30 1 2 2 1
M  V30 2 2 3 1
M  V30 3 1 4 1
M  V30 4 1 5 4
M  V30 5 1 6 5
M  V30 6 1 7 6
M  V30 7 1 8 4
M  V30 8 1 9 4
M  V30 9 1 10 5
M  V30 10 1 11 5
M  V30 11 1 12 6
M  V30 12 1 13 6
M  V30 13 1 14 7
M  V30 14 1 15 1
M  V30 END BOND
M  V30 END CTAB
M  END
$$$$
R-group 611 (10117-4)
     RDKit          3D

  0  0  0  0  0  0  0  0  0  0999 V3000
M  V30 BEGIN CTAB
M  V30 COUNTS 23 24 0 0 1
M  V30 BEGIN ATOM
M  V30 1 C 74.054600 54.714700 42.883100 0 CFG=1
M  V30 2 C 75.268100 55.320700 42.212100 0
M  V30 3 C 74.671800 56.567000 41.561200 0 CFG=2
M  V30 4 C 75.489300 57.021300 40.376700 0
M  V30 5 O 76.615300 57.650400 40.916200 0
M  V30 6 C 74.381900 57.590700 42.684100 0
M  V30 7 C 73.179000 57.005600 43.413000 0
M  V30 8 C 72.951200 55.711800 42.635900 0 CFG=1
M  V30 9 C 73.268400 56.179600 41.212700 0
M  V30 10 H 74.285100 54.778200 43.945500 0
M  V30 11 H 76.018200 55.549100 42.972300 0
M  V30 12 H 75.711000 54.615500 41.518000 0
M  V30 13 H 75.794500 56.165700 39.769800 0
M  V30 14 H 74.934600 57.655700 39.678600 0
M  V30 15 H 74.073100 58.541100 42.252600 0
M  V30 16 H 75.244900 57.691000 43.345200 0
M  V30 17 H 72.427400 57.790500 43.476400 0
M  V30 18 H 73.272200 56.654300 44.414300 0
M  V30 19 H 72.015300 55.244900 42.931000 0
M  V30 20 H 73.251400 55.480800 40.373900 0
M  V30 21 H 72.618600 57.016900 40.982100 0
M  V30 22 H 77.239100 57.794700 40.201000 0
M  V30 23 R 73.633500 53.272400 42.455500 0
M  V30 END ATOM
M  V30 BEGIN BOND
M  V30 1 1 2 1
M  V30 2 1 3 2
M  V30 3 1 3 4 CFG=3
M  V30 4 1 5 4
M  V30 5 1 6 3
M  V30 6 1 7 6
M  V30 7 1 8 1
M  V30 8 1 8 7
M  V30 9 1 9 3
M  V30 10 1 9 8
M  V30 11 1 1 10 CFG=1
M  V30 12 1 11 2
M  V30 13 1 12 2
M  V30 14 1 13 4
M  V30 15 1 14 4
M  V30 16 1 15 6
M  V30 17 1 16 6
M  V30 18 1 17 7
M  V30 19 1 18 7
M  V30 20 1 8 19 CFG=3
M  V30 21 1 20 9
M  V30 22 1 21 9
M  V30 23 1 22 5
M  V30 24 1 23 1
M  V30 END BOND
M  V30 END CTAB
M  END
$$$$
R-group 612 (11797-1)
     RDKit          3D

  0  0  0  0  0  0  0  0  0  0999 V3000
M  V30 BEGIN CTAB
M  V30 COUNTS 12 12 0 0 1
M  V30 BEGIN ATOM
M  V30 1 C 74.051400 54.568300 42.124700 0
M  V30 2 C 73.672400 55.654700 41.310700 0
M  V30 3 C 74.079600 56.682300 42.092200 0
M  V30 4 C 73.781500 58.078700 42.202100 0
M  V30 5 O 72.473100 58.466800 42.124600 0
M  V30 6 O 75.038500 56.303700 42.924700 0
M  V30 7 N 74.873000 54.952500 43.075800 0
M  V30 8 H 72.990600 55.677300 40.475900 0
M  V30 9 H 74.263500 58.457800 43.094900 0
M  V30 10 H 74.072400 58.458100 41.286500 0
M  V30 11 H 72.120200 58.165400 41.302300 0
M  V30 12 R 73.645800 53.135400 42.048300 0
M  V30 END ATOM
M  V30 BEGIN BOND
M  V30 1 1 2 1
M  V30 2 2 3 2
M  V30 3 1 4 3
M  V30 4 1 5 4
M  V30 5 1 6 3
M  V30 6 2 7 1
M  V30 7 1 7 6
M  V30 8 1 8 2
M  V30 9 1 9 4
M  V30 10 1 10 4
M  V30 11 1 11 5
M  V30 12 1 12 1
M  V30 END BOND
M  V30 END CTAB
M  END
$$$$
R-group 613 (7472-1)
     RDKit          3D

  0  0  0  0  0  0  0  0  0  0999 V3000
M  V30 BEGIN CTAB
M  V30 COUNTS 17 17 0 0 1
M  V30 BEGIN ATOM
M  V30 1 O 73.270100 54.432200 42.124500 0
M  V30 2 C 74.479400 55.163900 42.219000 0 CFG=2
M  V30 3 C 75.230600 54.831200 43.489400 0
M  V30 4 C 76.090200 55.974400 43.825600 0
M  V30 5 C 75.623800 57.113500 42.905600 0 CFG=1
M  V30 6 O 76.470400 57.247300 41.762200 0
M  V30 7 C 74.258100 56.662700 42.374100 0
M  V30 8 H 75.133100 55.003300 41.370200 0
M  V30 9 H 74.533900 54.647300 44.308300 0
M  V30 10 H 75.911200 54.002900 43.373700 0
M  V30 11 H 77.111400 55.658000 43.729000 0
M  V30 12 H 75.946900 56.058000 44.886900 0
M  V30 13 H 75.561300 58.011200 43.505600 0
M  V30 14 H 73.961000 57.150100 41.445100 0
M  V30 15 H 73.481700 56.846800 43.117900 0
M  V30 16 H 76.188300 57.994700 41.259500 0
M  V30 17 R 73.319800 53.041100 41.803200 0
M  V30 END ATOM
M  V30 BEGIN BOND
M  V30 1 1 2 1
M  V30 2 1 3 2
M  V30 3 1 4 3
M  V30 4 1 5 4
M  V30 5 1 6 5
M  V30 6 1 7 2
M  V30 7 1 7 5
M  V30 8 1 2 8 CFG=3
M  V30 9 1 9 3
M  V30 10 1 10 3
M  V30 11 1 11 4
M  V30 12 1 12 4
M  V30 13 1 5 13 CFG=1
M  V30 14 1 14 7
M  V30 15 1 15 7
M  V30 16 1 16 6
M  V30 17 1 17 1
M  V30 END BOND
M  V30 END CTAB
M  END
$$$$
R-group 614 (15944-1)
     RDKit          3D

  0  0  0  0  0  0  0  0  0  0999 V3000
M  V30 BEGIN CTAB
M  V30 COUNTS 19 18 0 0 1
M  V30 BEGIN ATOM
M  V30 1 C 76.901200 57.281400 40.558500 0
M  V30 2 C 75.680900 56.858100 41.326600 0
M  V30 3 O 75.793400 56.802400 42.548600 0
M  V30 4 N 74.532100 56.688000 40.645700 0
M  V30 5 C 74.375800 56.997700 39.212100 0
M  V30 6 C 73.266900 56.454600 41.310700 0
M  V30 7 C 73.271900 55.660900 42.636600 0
M  V30 8 O 74.203800 54.621700 42.524700 0
M  V30 9 H 76.723100 58.056900 39.815700 0
M  V30 10 H 77.667900 57.657500 41.230000 0
M  V30 11 H 77.260700 56.365700 40.124700 0
M  V30 12 H 74.729000 57.995400 38.928500 0
M  V30 13 H 74.872000 56.256600 38.594600 0
M  V30 14 H 73.333400 56.990300 38.895400 0
M  V30 15 H 72.632000 55.938500 40.586700 0
M  V30 16 H 72.795400 57.421700 41.483200 0
M  V30 17 H 72.298100 55.263600 42.924900 0
M  V30 18 H 73.560000 56.311500 43.463200 0
M  V30 19 R 73.707100 53.338900 42.260400 0
M  V30 END ATOM
M  V30 BEGIN BOND
M  V30 1 1 2 1
M  V30 2 2 3 2
M  V30 3 1 4 2
M  V30 4 1 5 4
M  V30 5 1 6 4
M  V30 6 1 7 6
M  V30 7 1 8 7
M  V30 8 1 9 1
M  V30 9 1 10 1
M  V30 10 1 11 1
M  V30 11 1 12 5
M  V30 12 1 13 5
M  V30 13 1 14 5
M  V30 14 1 15 6
M  V30 15 1 16 6
M  V30 16 1 17 7
M  V30 17 1 18 7
M  V30 18 1 19 8
M  V30 END BOND
M  V30 END CTAB
M  END
$$$$
R-group 615 (21482-1)
     RDKit          3D

  0  0  0  0  0  0  0  0  0  0999 V3000
M  V30 BEGIN CTAB
M  V30 COUNTS 22 21 0 0 1
M  V30 BEGIN ATOM
M  V30 1 C 70.668000 55.133100 39.311900 0
M  V30 2 O 72.048800 55.441400 39.336300 0
M  V30 3 C 72.442900 56.762400 38.966500 0
M  V30 4 C 72.867400 57.557500 40.232900 0
M  V30 5 C 74.007900 56.888000 40.978800 0
M  V30 6 O 75.130700 56.857500 40.474000 0
M  V30 7 N 73.690500 56.341200 42.156100 0
M  V30 8 C 74.452700 55.328900 42.846900 0 CFG=2
M  V30 9 C 75.856100 55.870600 43.173300 0
M  V30 10 H 70.543700 54.070600 39.526600 0
M  V30 11 H 70.147400 55.692200 40.079300 0
M  V30 12 H 70.207900 55.335200 38.343500 0
M  V30 13 H 71.659900 57.258000 38.384500 0
M  V30 14 H 73.316000 56.713800 38.315500 0
M  V30 15 H 72.078500 57.630600 40.939400 0
M  V30 16 H 73.143800 58.580900 40.022600 0
M  V30 17 H 74.054000 55.256500 43.844800 0
M  V30 18 H 76.340100 55.279100 43.950000 0
M  V30 19 H 76.484200 55.926700 42.292000 0
M  V30 20 H 75.777900 56.884600 43.562500 0
M  V30 21 H 72.759400 56.518800 42.506000 0
M  V30 22 R 74.278900 53.925000 42.132300 0
M  V30 END ATOM
M  V30 BEGIN BOND
M  V30 1 1 2 1
M  V30 2 1 3 2
M  V30 3 1 4 3
M  V30 4 1 5 4
M  V30 5 2 6 5
M  V30 6 1 7 5
M  V30 7 1 8 7
M  V30 8 1 9 8
M  V30 9 1 10 1
M  V30 10 1 11 1
M  V30 11 1 12 1
M  V30 12 1 13 3
M  V30 13 1 14 3
M  V30 14 1 15 4
M  V30 15 1 16 4
M  V30 16 1 8 17 CFG=1
M  V30 17 1 18 9
M  V30 18 1 19 9
M  V30 19 1 20 9
M  V30 20 1 21 7
M  V30 21 1 22 8
M  V30 END BOND
M  V30 END CTAB
M  END
$$$$
R-group 616 (21651-1)
     RDKit          3D

  0  0  0  0  0  0  0  0  0  0999 V3000
M  V30 BEGIN CTAB
M  V30 COUNTS 15 14 0 0 1
M  V30 BEGIN ATOM
M  V30 1 N 73.256600 54.349400 42.124900 0
M  V30 2 C 74.092600 55.302400 42.524100 0
M  V30 3 O 75.271000 55.169500 42.818000 0
M  V30 4 C 73.490500 56.648800 42.539300 0
M  V30 5 S 73.454100 57.159300 40.803800 0
M  V30 6 C 75.227200 57.254800 40.337000 0
M  V30 7 O 72.867600 56.147400 39.910200 0
M  V30 8 O 72.821100 58.458200 40.923700 0
M  V30 9 H 72.472600 56.647800 42.949900 0
M  V30 10 H 75.273300 57.661100 39.330600 0
M  V30 11 H 75.804200 57.831500 41.055900 0
M  V30 12 H 75.639200 56.247900 40.299300 0
M  V30 13 H 72.290600 54.622600 42.012000 0
M  V30 14 H 74.096700 57.345100 43.110600 0
M  V30 15 R 73.527700 53.030800 41.665000 0
M  V30 END ATOM
M  V30 BEGIN BOND
M  V30 1 1 2 1
M  V30 2 2 3 2
M  V30 3 1 4 2
M  V30 4 1 5 4
M  V30 5 1 6 5
M  V30 6 2 7 5
M  V30 7 2 8 5
M  V30 8 1 9 4
M  V30 9 1 10 6
M  V30 10 1 11 6
M  V30 11 1 12 6
M  V30 12 1 13 1
M  V30 13 1 14 4
M  V30 14 1 15 1
M  V30 END BOND
M  V30 END CTAB
M  END
$$$$
R-group 617 (2564-1)
     RDKit          3D

  0  0  0  0  0  0  0  0  0  0999 V3000
M  V30 BEGIN CTAB
M  V30 COUNTS 14 14 0 0 1
M  V30 BEGIN ATOM
M  V30 1 C 74.840900 55.013400 42.315300 0
M  V30 2 N 74.216700 56.118000 41.654900 0
M  V30 3 C 74.036800 56.349800 40.359300 0
M  V30 4 N 73.272200 57.389400 40.124800 0
M  V30 5 C 73.125200 57.863700 41.398300 0
M  V30 6 C 72.268900 59.046900 41.731000 0
M  V30 7 N 73.672300 57.131400 42.359400 0
M  V30 8 H 75.068700 55.303500 43.342400 0
M  V30 9 H 75.797900 54.859600 41.821500 0
M  V30 10 H 74.391100 55.709900 39.567800 0
M  V30 11 H 71.756000 59.416400 40.849300 0
M  V30 12 H 71.530700 58.857700 42.510200 0
M  V30 13 H 72.872300 59.843300 42.124100 0
M  V30 14 R 74.001200 53.708700 42.283900 0
M  V30 END ATOM
M  V30 BEGIN BOND
M  V30 1 1 2 1
M  V30 2 1 3 2
M  V30 3 2 4 3
M  V30 4 1 5 4
M  V30 5 1 6 5
M  V30 6 1 7 2
M  V30 7 2 7 5
M  V30 8 1 8 1
M  V30 9 1 9 1
M  V30 10 1 10 3
M  V30 11 1 11 6
M  V30 12 1 12 6
M  V30 13 1 13 6
M  V30 14 1 14 1
M  V30 END BOND
M  V30 END CTAB
M  END
$$$$
R-group 618 (14215-1)
     RDKit          3D

  0  0  0  0  0  0  0  0  0  0999 V3000
M  V30 BEGIN CTAB
M  V30 COUNTS 14 14 0 0 1
M  V30 BEGIN ATOM
M  V30 1 C 74.082100 55.095400 41.757800 0
M  V30 2 N 74.964600 55.443400 42.774700 0
M  V30 3 C 75.116100 56.755100 42.668200 0
M  V30 4 C 75.953400 57.637100 43.520800 0
M  V30 5 O 74.395400 57.298800 41.658200 0
M  V30 6 C 73.752900 56.245000 41.084000 0
M  V30 7 C 72.866300 56.525500 39.917300 0
M  V30 8 H 76.576000 57.044700 44.188900 0
M  V30 9 H 76.609800 58.246500 42.909400 0
M  V30 10 H 75.323000 58.287100 44.124700 0
M  V30 11 H 73.083600 55.873600 39.085200 0
M  V30 12 H 71.819500 56.402900 40.182900 0
M  V30 13 H 73.010000 57.531400 39.542800 0
M  V30 14 R 73.637000 53.674400 41.508400 0
M  V30 END ATOM
M  V30 BEGIN BOND
M  V30 1 1 2 1
M  V30 2 2 3 2
M  V30 3 1 4 3
M  V30 4 1 5 3
M  V30 5 2 6 1
M  V30 6 1 6 5
M  V30 7 1 7 6
M  V30 8 1 8 4
M  V30 9 1 9 4
M  V30 10 1 10 4
M  V30 11 1 11 7
M  V30 12 1 12 7
M  V30 13 1 13 7
M  V30 14 1 14 1
M  V30 END BOND
M  V30 END CTAB
M  END
$$$$
R-group 619 (39326-1)
     RDKit          3D

  0  0  0  0  0  0  0  0  0  0999 V3000
M  V30 BEGIN CTAB
M  V30 COUNTS 12 11 0 0 1
M  V30 BEGIN ATOM
M  V30 1 C 74.439700 54.932800 42.998500 0
M  V30 2 C 73.733500 56.186500 42.544200 0
M  V30 3 O 74.019400 56.158500 41.165700 0
M  V30 4 C 73.329000 56.928400 40.310200 0
M  V30 5 F 72.300600 56.269200 39.724700 0
M  V30 6 F 72.872300 58.058000 40.901300 0
M  V30 7 F 74.173200 57.258000 39.324700 0
M  V30 8 H 74.472300 54.967800 44.087900 0
M  V30 9 H 75.482300 54.996300 42.680900 0
M  V30 10 H 72.694000 56.159400 42.863400 0
M  V30 11 H 74.187300 57.072500 42.990100 0
M  V30 12 R 73.824600 53.579700 42.520700 0
M  V30 END ATOM
M  V30 BEGIN BOND
M  V30 1 1 2 1
M  V30 2 1 3 2
M  V30 3 1 4 3
M  V30 4 1 5 4
M  V30 5 1 6 4
M  V30 6 1 7 4
M  V30 7 1 8 1
M  V30 8 1 9 1
M  V30 9 1 10 2
M  V30 10 1 11 2
M  V30 11 1 12 1
M  V30 END BOND
M  V30 END CTAB
M  END
$$$$
R-group 620 (34977-2)
     RDKit          3D

  0  0  0  0  0  0  0  0  0  0999 V3000
M  V30 BEGIN CTAB
M  V30 COUNTS 18 17 0 0 1
M  V30 BEGIN ATOM
M  V30 1 C 76.479800 57.659400 40.526900 0
M  V30 2 C 75.036500 57.259000 40.830800 0
M  V30 3 C 74.864100 56.207300 41.884800 0
M  V30 4 O 75.670900 56.057600 42.799400 0
M  V30 5 N 73.725800 55.539400 41.738500 0
M  V30 6 C 73.308100 54.409500 42.526900 0 CFG=1
M  V30 7 C 71.828600 54.458000 42.771200 0
M  V30 8 H 76.512700 58.443800 39.769600 0
M  V30 9 H 76.975700 58.034800 41.420800 0
M  V30 10 H 77.051300 56.818700 40.141000 0
M  V30 11 H 74.512500 56.998200 39.908700 0
M  V30 12 H 74.487500 58.058400 41.323100 0
M  V30 13 H 73.829600 54.550000 43.457900 0
M  V30 14 H 71.467500 53.620700 43.358500 0
M  V30 15 H 71.672200 55.378600 43.328000 0
M  V30 16 H 71.273200 54.453400 41.833900 0
M  V30 17 H 73.139200 55.797400 40.961300 0
M  V30 18 R 73.636600 53.086000 41.863800 0
M  V30 END ATOM
M  V30 BEGIN BOND
M  V30 1 1 2 1
M  V30 2 1 3 2
M  V30 3 2 4 3
M  V30 4 1 5 3
M  V30 5 1 6 5
M  V30 6 1 7 6
M  V30 7 1 8 1
M  V30 8 1 9 1
M  V30 9 1 10 1
M  V30 10 1 11 2
M  V30 11 1 12 2
M  V30 12 1 6 13 CFG=1
M  V30 13 1 14 7
M  V30 14 1 15 7
M  V30 15 1 16 7
M  V30 16 1 17 5
M  V30 17 1 18 6
M  V30 END BOND
M  V30 END CTAB
M  END
$$$$
R-group 621 (43051-1)
     RDKit          3D

  0  0  0  0  0  0  0  0  0  0999 V3000
M  V30 BEGIN CTAB
M  V30 COUNTS 16 15 0 0 1
M  V30 BEGIN ATOM
M  V30 1 O 73.583700 54.464400 41.985500 0
M  V30 2 C 72.882600 55.257400 41.058600 0
M  V30 3 C 73.037800 56.735800 41.558600 0
M  V30 4 C 74.466500 57.253900 41.707800 0 CFG=1
M  V30 5 O 75.062600 56.852600 42.922700 0
M  V30 6 C 75.355300 56.771800 40.580500 0
M  V30 7 F 76.472300 57.495000 40.532500 0
M  V30 8 F 75.672200 55.505300 40.774100 0
M  V30 9 F 74.663300 56.857900 39.447300 0
M  V30 10 H 73.301500 55.145400 40.065400 0
M  V30 11 H 71.872700 54.857800 40.924300 0
M  V30 12 H 72.497200 57.385700 40.868400 0
M  V30 13 H 72.572200 56.863500 42.537300 0
M  V30 14 H 74.378300 58.333900 41.724800 0
M  V30 15 H 75.942200 57.200400 42.956800 0
M  V30 16 R 73.414600 53.068400 41.894400 0
M  V30 END ATOM
M  V30 BEGIN BOND
M  V30 1 1 2 1
M  V30 2 1 3 2
M  V30 3 1 4 3
M  V30 4 1 5 4
M  V30 5 1 6 4
M  V30 6 1 7 6
M  V30 7 1 8 6
M  V30 8 1 9 6
M  V30 9 1 10 2
M  V30 10 1 11 2
M  V30 11 1 12 3
M  V30 12 1 13 3
M  V30 13 1 4 14 CFG=1
M  V30 14 1 15 5
M  V30 15 1 16 1
M  V30 END BOND
M  V30 END CTAB
M  END
$$$$
R-group 622 (17196-1)
     RDKit          3D

  0  0  0  0  0  0  0  0  0  0999 V3000
M  V30 BEGIN CTAB
M  V30 COUNTS 14 13 0 0 1
M  V30 BEGIN ATOM
M  V30 1 C 73.817600 56.974700 39.150700 0
M  V30 2 N 73.948900 56.421100 40.479400 0
M  V30 3 C 75.059000 56.458200 41.223800 0
M  V30 4 O 76.072100 57.073200 40.924600 0
M  V30 5 N 75.006600 55.711300 42.322600 0
M  V30 6 C 73.843600 55.077700 42.912900 0
M  V30 7 H 72.791200 56.868800 38.802000 0
M  V30 8 H 74.070300 58.030100 39.161100 0
M  V30 9 H 74.473400 56.463500 38.446700 0
M  V30 10 H 72.932400 55.657300 42.760700 0
M  V30 11 H 74.072300 55.169500 43.973100 0
M  V30 12 H 73.179300 55.871100 40.827000 0
M  V30 13 H 75.854200 55.687200 42.869000 0
M  V30 14 R 73.643900 53.594200 42.488400 0
M  V30 END ATOM
M  V30 BEGIN BOND
M  V30 1 1 2 1
M  V30 2 1 3 2
M  V30 3 2 4 3
M  V30 4 1 5 3
M  V30 5 1 6 5
M  V30 6 1 7 1
M  V30 7 1 8 1
M  V30 8 1 9 1
M  V30 9 1 10 6
M  V30 10 1 11 6
M  V30 11 1 12 2
M  V30 12 1 13 5
M  V30 13 1 14 6
M  V30 END BOND
M  V30 END CTAB
M  END
$$$$
R-group 623 (15916-1)
     RDKit          3D

  0  0  0  0  0  0  0  0  0  0999 V3000
M  V30 BEGIN CTAB
M  V30 COUNTS 16 15 0 0 1
M  V30 BEGIN ATOM
M  V30 1 O 73.349500 54.709100 41.782700 0
M  V30 2 C 72.977600 55.469300 42.919300 0
M  V30 3 C 73.144300 56.937300 42.486900 0
M  V30 4 N 74.348700 57.167000 41.744500 0
M  V30 5 C 75.533900 56.858000 42.234200 0
M  V30 6 O 75.691500 56.058000 43.142600 0
M  V30 7 C 76.618300 57.843100 41.865800 0
M  V30 8 F 77.691200 57.257900 41.724600 0
M  V30 9 F 76.472200 58.458100 40.705500 0
M  V30 10 H 71.969900 55.258700 43.285000 0
M  V30 11 H 73.672200 55.257900 43.724500 0
M  V30 12 H 72.472300 57.258500 41.713800 0
M  V30 13 H 73.056100 57.624100 43.330400 0
M  V30 14 H 74.308600 57.849700 41.002700 0
M  V30 15 H 76.872200 58.458300 42.721100 0
M  V30 16 R 73.274000 53.308100 41.877000 0
M  V30 END ATOM
M  V30 BEGIN BOND
M  V30 1 1 2 1
M  V30 2 1 3 2
M  V30 3 1 4 3
M  V30 4 1 5 4
M  V30 5 2 6 5
M  V30 6 1 7 5
M  V30 7 1 8 7
M  V30 8 1 9 7
M  V30 9 1 10 2
M  V30 10 1 11 2
M  V30 11 1 12 3
M  V30 12 1 13 3
M  V30 13 1 14 4
M  V30 14 1 15 7
M  V30 15 1 16 1
M  V30 END BOND
M  V30 END CTAB
M  END
$$$$
R-group 624 (14787-1)
     RDKit          3D

  0  0  0  0  0  0  0  0  0  0999 V3000
M  V30 BEGIN CTAB
M  V30 COUNTS 21 21 0 0 1
M  V30 BEGIN ATOM
M  V30 1 C 73.872100 54.480100 42.144700 0
M  V30 2 C 73.590100 55.199000 40.885900 0
M  V30 3 C 74.285700 56.300700 40.322000 0
M  V30 4 C 75.562100 56.936700 40.778600 0
M  V30 5 N 73.570800 56.858000 39.371100 0
M  V30 6 N 72.430000 56.152000 39.327900 0
M  V30 7 C 71.270700 56.572000 38.569900 0
M  V30 8 C 72.472000 55.053200 40.123300 0
M  V30 9 C 71.217500 54.235400 40.332900 0
M  V30 10 H 73.195500 54.832800 42.925300 0
M  V30 11 H 74.867000 54.754600 42.501800 0
M  V30 12 H 75.384800 57.648100 41.586500 0
M  V30 13 H 76.273500 56.199700 41.134200 0
M  V30 14 H 76.050200 57.499100 39.979000 0
M  V30 15 H 70.875100 55.674700 38.111400 0
M  V30 16 H 70.519000 57.007900 39.230400 0
M  V30 17 H 71.536500 57.256500 37.785900 0
M  V30 18 H 71.281700 53.596400 41.214700 0
M  V30 19 H 70.362300 54.861900 40.514500 0
M  V30 20 H 70.987900 53.622100 39.465800 0
M  V30 21 R 73.737600 52.951800 42.028900 0
M  V30 END ATOM
M  V30 BEGIN BOND
M  V30 1 1 2 1
M  V30 2 1 3 2
M  V30 3 1 4 3
M  V30 4 2 5 3
M  V30 5 1 6 5
M  V30 6 1 7 6
M  V30 7 2 8 2
M  V30 8 1 8 6
M  V30 9 1 9 8
M  V30 10 1 10 1
M  V30 11 1 11 1
M  V30 12 1 12 4
M  V30 13 1 13 4
M  V30 14 1 14 4
M  V30 15 1 15 7
M  V30 16 1 16 7
M  V30 17 1 17 7
M  V30 18 1 18 9
M  V30 19 1 19 9
M  V30 20 1 20 9
M  V30 21 1 21 1
M  V30 END BOND
M  V30 END CTAB
M  END
$$$$
R-group 625 (13903-1)
     RDKit          3D

  0  0  0  0  0  0  0  0  0  0999 V3000
M  V30 BEGIN CTAB
M  V30 COUNTS 12 12 0 0 1
M  V30 BEGIN ATOM
M  V30 1 N 74.683400 54.836900 42.241600 0
M  V30 2 C 74.067900 55.996900 41.805400 0
M  V30 3 S 73.672200 57.254500 42.923700 0
M  V30 4 C 72.872600 58.213400 41.725600 0
M  V30 5 C 73.107100 57.654200 40.510300 0
M  V30 6 C 73.673300 56.369600 40.559600 0
M  V30 7 C 73.675900 55.617700 39.382100 0
M  V30 8 N 73.671900 54.857300 38.525100 0
M  V30 9 H 75.208300 55.030100 43.082500 0
M  V30 10 H 72.410000 59.157300 41.974900 0
M  V30 11 H 72.875200 58.059300 39.554100 0
M  V30 12 R 73.959400 53.573800 42.381700 0
M  V30 END ATOM
M  V30 BEGIN BOND
M  V30 1 1 2 1
M  V30 2 1 3 2
M  V30 3 1 4 3
M  V30 4 2 5 4
M  V30 5 2 6 2
M  V30 6 1 6 5
M  V30 7 1 7 6
M  V30 8 3 8 7
M  V30 9 1 9 1
M  V30 10 1 10 4
M  V30 11 1 11 5
M  V30 12 1 12 1
M  V30 END BOND
M  V30 END CTAB
M  END
$$$$
R-group 626 (2898-1)
     RDKit          3D

  0  0  0  0  0  0  0  0  0  0999 V3000
M  V30 BEGIN CTAB
M  V30 COUNTS 25 25 0 0 1
M  V30 BEGIN ATOM
M  V30 1 C 73.807700 56.288000 38.594400 0
M  V30 2 O 74.165100 56.066800 39.931200 0
M  V30 3 C 74.438000 57.258400 40.636900 0
M  V30 4 C 74.491300 57.096300 42.170000 0 CFG=1
M  V30 5 C 73.205600 56.647600 42.798200 0
M  V30 6 C 72.872500 55.234000 42.380100 0
M  V30 7 C 73.993700 54.312600 42.662100 0 CFG=2
M  V30 8 C 75.383900 54.792800 42.223200 0
M  V30 9 C 75.665800 56.234900 42.640200 0
M  V30 10 H 73.672200 55.321500 38.118500 0
M  V30 11 H 72.880000 56.857200 38.532900 0
M  V30 12 H 74.600900 56.828500 38.087700 0
M  V30 13 H 73.670800 57.998600 40.400700 0
M  V30 14 H 75.394600 57.652500 40.286100 0
M  V30 15 H 74.486500 58.059600 42.633500 0
M  V30 16 H 72.472200 57.378300 42.495700 0
M  V30 17 H 73.266100 56.706500 43.882900 0
M  V30 18 H 72.638300 55.171400 41.324500 0
M  V30 19 H 71.995200 54.876500 42.923700 0
M  V30 20 H 74.072300 54.355200 43.736300 0
M  V30 21 H 76.070300 54.100300 42.679800 0
M  V30 22 H 75.579200 54.694500 41.168600 0
M  V30 23 H 75.769000 56.296500 43.723600 0
M  V30 24 H 76.601000 56.588100 42.206000 0
M  V30 25 R 73.612800 52.890900 42.245800 0
M  V30 END ATOM
M  V30 BEGIN BOND
M  V30 1 1 2 1
M  V30 2 1 3 2
M  V30 3 1 4 3
M  V30 4 1 5 4
M  V30 5 1 6 5
M  V30 6 1 7 6
M  V30 7 1 8 7
M  V30 8 1 9 4
M  V30 9 1 9 8
M  V30 10 1 10 1
M  V30 11 1 11 1
M  V30 12 1 12 1
M  V30 13 1 13 3
M  V30 14 1 14 3
M  V30 15 1 4 15 CFG=1
M  V30 16 1 16 5
M  V30 17 1 17 5
M  V30 18 1 18 6
M  V30 19 1 19 6
M  V30 20 1 7 20 CFG=1
M  V30 21 1 21 8
M  V30 22 1 22 8
M  V30 23 1 23 9
M  V30 24 1 24 9
M  V30 25 1 25 7
M  V30 END BOND
M  V30 END CTAB
M  END
$$$$
R-group 627 (20054-4)
     RDKit          3D

  0  0  0  0  0  0  0  0  0  0999 V3000
M  V30 BEGIN CTAB
M  V30 COUNTS 18 19 0 0 1
M  V30 BEGIN ATOM
M  V30 1 N 73.988700 54.427700 42.524700 0
M  V30 2 C 72.941300 55.400500 42.322100 0
M  V30 3 C 73.735500 56.192500 41.312400 0 CFG=1
M  V30 4 C 74.037200 57.656100 40.971300 0
M  V30 5 C 75.537200 57.169300 40.986400 0
M  V30 6 F 76.472400 58.058200 41.321600 0
M  V30 7 F 75.896400 56.472600 39.911600 0
M  V30 8 C 75.023500 56.322800 42.106900 0 CFG=2
M  V30 9 C 75.358300 54.950200 42.475700 0
M  V30 10 H 72.073600 54.820500 41.972800 0
M  V30 11 H 72.719300 55.944200 43.242200 0
M  V30 12 H 73.829800 55.628300 40.384600 0
M  V30 13 H 73.671300 57.972200 39.991900 0
M  V30 14 H 73.760200 58.369700 41.753000 0
M  V30 15 H 74.905200 56.929400 43.016900 0
M  V30 16 H 75.809900 54.898300 43.469200 0
M  V30 17 H 75.981100 54.476700 41.724900 0
M  V30 18 R 73.673700 53.074900 42.155000 0
M  V30 END ATOM
M  V30 BEGIN BOND
M  V30 1 1 2 1
M  V30 2 1 3 2
M  V30 3 1 4 3
M  V30 4 1 5 4
M  V30 5 1 6 5
M  V30 6 1 7 5
M  V30 7 1 8 3
M  V30 8 1 8 5
M  V30 9 1 9 1
M  V30 10 1 9 8
M  V30 11 1 10 2
M  V30 12 1 11 2
M  V30 13 1 3 12 CFG=3
M  V30 14 1 13 4
M  V30 15 1 14 4
M  V30 16 1 8 15 CFG=1
M  V30 17 1 16 9
M  V30 18 1 17 9
M  V30 19 1 18 1
M  V30 END BOND
M  V30 END CTAB
M  END
$$$$
R-group 628 (13022-1)
     RDKit          3D

  0  0  0  0  0  0  0  0  0  0999 V3000
M  V30 BEGIN CTAB
M  V30 COUNTS 19 19 0 0 1
M  V30 BEGIN ATOM
M  V30 1 C 74.216300 55.002400 42.450800 0
M  V30 2 O 75.272200 55.247900 41.906300 0
M  V30 3 N 73.465400 55.996900 42.924600 0
M  V30 4 C 73.727500 57.409700 42.755100 0
M  V30 5 C 73.119000 57.965500 41.457800 0
M  V30 6 N 73.264100 57.101300 40.289600 0
M  V30 7 C 74.372900 56.605200 39.674200 0
M  V30 8 C 73.919600 55.556300 38.929600 0
M  V30 9 C 72.581000 55.405900 39.324700 0
M  V30 10 N 72.164400 56.548900 39.724600 0
M  V30 11 H 73.311400 57.941700 43.610900 0
M  V30 12 H 74.802500 57.593700 42.780700 0
M  V30 13 H 72.072300 58.244000 41.591200 0
M  V30 14 H 73.672100 58.858100 41.317700 0
M  V30 15 H 75.370400 56.974700 39.863400 0
M  V30 16 H 74.472200 54.891100 38.286000 0
M  V30 17 H 71.867500 54.670800 38.980600 0
M  V30 18 H 72.659400 55.726700 43.478200 0
M  V30 19 R 73.747700 53.537600 42.565000 0
M  V30 END ATOM
M  V30 BEGIN BOND
M  V30 1 2 2 1
M  V30 2 1 3 1
M  V30 3 1 4 3
M  V30 4 1 5 4
M  V30 5 1 6 5
M  V30 6 1 7 6
M  V30 7 2 8 7
M  V30 8 1 9 8
M  V30 9 1 10 6
M  V30 10 2 10 9
M  V30 11 1 11 4
M  V30 12 1 12 4
M  V30 13 1 13 5
M  V30 14 1 14 5
M  V30 15 1 15 7
M  V30 16 1 16 8
M  V30 17 1 17 9
M  V30 18 1 18 3
M  V30 19 1 19 1
M  V30 END BOND
M  V30 END CTAB
M  END
$$$$
R-group 629 (32886-1)
     RDKit          3D

  0  0  0  0  0  0  0  0  0  0999 V3000
M  V30 BEGIN CTAB
M  V30 COUNTS 19 19 0 0 1
M  V30 BEGIN ATOM
M  V30 1 C 73.616400 54.800200 42.336600 0
M  V30 2 N 74.878300 55.409400 41.998200 0
M  V30 3 C 75.022400 56.543300 41.309400 0
M  V30 4 O 76.133200 57.028100 41.147500 0
M  V30 5 C 73.790100 57.194200 40.744500 0
M  V30 6 C 73.048800 58.045900 41.765100 0
M  V30 7 C 73.934300 57.663700 39.324700 0
M  V30 8 C 73.045800 56.501300 39.602200 0
M  V30 9 H 72.867000 55.206800 41.706600 0
M  V30 10 H 73.354700 55.128300 43.324700 0
M  V30 11 H 72.147400 58.475800 41.328300 0
M  V30 12 H 72.766200 57.453700 42.633900 0
M  V30 13 H 73.672200 58.858300 42.120500 0
M  V30 14 H 73.494900 58.627100 39.079300 0
M  V30 15 H 74.871600 57.451700 38.831600 0
M  V30 16 H 73.401700 55.538400 39.246200 0
M  V30 17 H 71.969800 56.650500 39.540700 0
M  V30 18 H 75.716200 54.974000 42.353400 0
M  V30 19 R 73.546900 53.291400 42.128700 0
M  V30 END ATOM
M  V30 BEGIN BOND
M  V30 1 1 2 1
M  V30 2 1 3 2
M  V30 3 2 4 3
M  V30 4 1 5 3
M  V30 5 1 6 5
M  V30 6 1 7 5
M  V30 7 1 8 5
M  V30 8 1 8 7
M  V30 9 1 9 1
M  V30 10 1 10 1
M  V30 11 1 11 6
M  V30 12 1 12 6
M  V30 13 1 13 6
M  V30 14 1 14 7
M  V30 15 1 15 7
M  V30 16 1 16 8
M  V30 17 1 17 8
M  V30 18 1 18 2
M  V30 19 1 19 1
M  V30 END BOND
M  V30 END CTAB
M  END
$$$$
R-group 630 (15163-1)
     RDKit          3D

  0  0  0  0  0  0  0  0  0  0999 V3000
M  V30 BEGIN CTAB
M  V30 COUNTS 12 12 0 0 1
M  V30 BEGIN ATOM
M  V30 1 C 73.896000 54.632800 41.732800 0
M  V30 2 N 73.332100 55.536600 42.525600 0
M  V30 3 C 73.730400 56.780900 42.385700 0
M  V30 4 N 73.272000 57.658000 43.277700 0
M  V30 5 N 74.616200 57.257200 41.541400 0
M  V30 6 C 75.213200 56.360800 40.742600 0
M  V30 7 C 74.895400 54.995900 40.820000 0
M  V30 8 F 75.580100 54.075300 40.124600 0
M  V30 9 H 73.782400 58.521600 43.369300 0
M  V30 10 H 72.825400 57.287800 44.103700 0
M  V30 11 H 75.987900 56.725900 40.086400 0
M  V30 12 R 73.484300 53.215100 42.000500 0
M  V30 END ATOM
M  V30 BEGIN BOND
M  V30 1 2 2 1
M  V30 2 1 3 2
M  V30 3 1 4 3
M  V30 4 2 5 3
M  V30 5 1 6 5
M  V30 6 1 7 1
M  V30 7 2 7 6
M  V30 8 1 8 7
M  V30 9 1 9 4
M  V30 10 1 10 4
M  V30 11 1 11 6
M  V30 12 1 12 1
M  V30 END BOND
M  V30 END CTAB
M  END
$$$$
R-group 631 (17804-2)
     RDKit          3D

  0  0  0  0  0  0  0  0  0  0999 V3000
M  V30 BEGIN CTAB
M  V30 COUNTS 18 18 0 0 1
M  V30 BEGIN ATOM
M  V30 1 C 74.279500 55.783900 42.605500 0 CFG=1
M  V30 2 C 75.541000 56.338300 42.122100 0
M  V30 3 N 76.472200 56.857700 41.722800 0
M  V30 4 N 73.343700 56.835300 42.231600 0
M  V30 5 C 73.464300 57.312900 40.850200 0
M  V30 6 C 72.524700 58.466300 40.797300 0
M  V30 7 C 72.322600 58.944900 42.214600 0
M  V30 8 C 73.257600 58.033900 43.056700 0
M  V30 9 H 74.345300 55.802400 43.693000 0
M  V30 10 H 73.197400 56.579400 40.097300 0
M  V30 11 H 74.452900 57.658800 40.579500 0
M  V30 12 H 71.672600 58.050200 40.317700 0
M  V30 13 H 72.821600 59.257600 40.142600 0
M  V30 14 H 72.471900 60.015700 42.322100 0
M  V30 15 H 71.272300 58.857400 42.450000 0
M  V30 16 H 74.250900 58.457700 43.158900 0
M  V30 17 H 72.870200 57.821800 44.053900 0
M  V30 18 R 73.831200 54.300600 42.219100 0
M  V30 END ATOM
M  V30 BEGIN BOND
M  V30 1 1 2 1
M  V30 2 3 3 2
M  V30 3 1 4 1
M  V30 4 1 5 4
M  V30 5 1 6 5
M  V30 6 1 7 6
M  V30 7 1 8 4
M  V30 8 1 8 7
M  V30 9 1 1 9 CFG=1
M  V30 10 1 10 5
M  V30 11 1 11 5
M  V30 12 1 12 6
M  V30 13 1 13 6
M  V30 14 1 14 7
M  V30 15 1 15 7
M  V30 16 1 16 8
M  V30 17 1 17 8
M  V30 18 1 18 1
M  V30 END BOND
M  V30 END CTAB
M  END
$$$$
R-group 632 (36344-3)
     RDKit          3D

  0  0  0  0  0  0  0  0  0  0999 V3000
M  V30 BEGIN CTAB
M  V30 COUNTS 22 22 0 0 1
M  V30 BEGIN ATOM
M  V30 1 C 74.161800 54.661700 42.111600 0
M  V30 2 O 73.268700 55.272600 42.524700 0
M  V30 3 N 75.272600 55.316800 41.826200 0
M  V30 4 C 75.474800 56.782700 41.850400 0 CFG=2
M  V30 5 C 74.454400 57.645200 42.678600 0
M  V30 6 C 73.396800 58.110600 41.660900 0
M  V30 7 C 73.829200 57.657900 40.244700 0 CFG=2
M  V30 8 C 72.925900 56.609400 39.575700 0
M  V30 9 C 75.328900 57.257000 40.400800 0
M  V30 10 H 76.487100 56.957500 42.212800 0
M  V30 11 H 73.984500 57.118000 43.502300 0
M  V30 12 H 74.817200 58.435600 43.325100 0
M  V30 13 H 72.457900 57.663700 41.926000 0
M  V30 14 H 73.258000 59.188300 41.727400 0
M  V30 15 H 73.671400 58.484200 39.548700 0
M  V30 16 H 72.770500 55.723700 40.170700 0
M  V30 17 H 71.928100 57.006100 39.383600 0
M  V30 18 H 73.341300 56.294500 38.620500 0
M  V30 19 H 76.072100 58.057500 40.239100 0
M  V30 20 H 75.604300 56.476500 39.694900 0
M  V30 21 H 76.047200 54.766000 41.495400 0
M  V30 22 R 73.885100 53.194800 41.973600 0
M  V30 END ATOM
M  V30 BEGIN BOND
M  V30 1 2 2 1
M  V30 2 1 3 1
M  V30 3 1 4 3
M  V30 4 1 5 4
M  V30 5 1 6 5
M  V30 6 1 7 6
M  V30 7 1 8 7
M  V30 8 1 9 4
M  V30 9 1 9 7
M  V30 10 1 4 10 CFG=1
M  V30 11 1 11 5
M  V30 12 1 12 5
M  V30 13 1 13 6
M  V30 14 1 14 6
M  V30 15 1 7 15 CFG=3
M  V30 16 1 16 8
M  V30 17 1 17 8
M  V30 18 1 18 8
M  V30 19 1 19 9
M  V30 20 1 20 9
M  V30 21 1 21 3
M  V30 22 1 22 1
M  V30 END BOND
M  V30 END CTAB
M  END
$$$$
R-group 633 (16461-2)
     RDKit          3D

  0  0  0  0  0  0  0  0  0  0999 V3000
M  V30 BEGIN CTAB
M  V30 COUNTS 19 19 0 0 1
M  V30 BEGIN ATOM
M  V30 1 O 73.771700 54.047800 42.253900 0
M  V30 2 C 72.723400 54.857700 41.924000 0
M  V30 3 C 73.199800 55.976300 40.924900 0 CFG=2
M  V30 4 C 74.248300 55.529600 39.890300 0
M  V30 5 C 75.573100 55.308900 40.650400 0
M  V30 6 S 75.556300 56.615000 41.875700 0
M  V30 7 O 75.672500 56.058000 43.230700 0
M  V30 8 O 76.472300 57.619600 41.325200 0
M  V30 9 C 73.836400 57.147300 41.656800 0
M  V30 10 H 71.844200 54.339500 41.538200 0
M  V30 11 H 72.429200 55.258400 42.910900 0
M  V30 12 H 72.342600 56.362900 40.373800 0
M  V30 13 H 73.884600 54.704200 39.289400 0
M  V30 14 H 74.395600 56.342300 39.177100 0
M  V30 15 H 75.671700 54.361800 41.159000 0
M  V30 16 H 76.504500 55.437800 40.126400 0
M  V30 17 H 73.812900 58.055900 41.056700 0
M  V30 18 H 73.389200 57.361700 42.627100 0
M  V30 19 R 73.530400 52.696100 42.128900 0
M  V30 END ATOM
M  V30 BEGIN BOND
M  V30 1 1 2 1
M  V30 2 1 3 2
M  V30 3 1 4 3
M  V30 4 1 5 4
M  V30 5 1 6 5
M  V30 6 2 7 6
M  V30 7 2 8 6
M  V30 8 1 9 3
M  V30 9 1 9 6
M  V30 10 1 10 2
M  V30 11 1 11 2
M  V30 12 1 3 12 CFG=3
M  V30 13 1 13 4
M  V30 14 1 14 4
M  V30 15 1 15 5
M  V30 16 1 16 5
M  V30 17 1 17 9
M  V30 18 1 18 9
M  V30 19 1 19 1
M  V30 END BOND
M  V30 END CTAB
M  END
$$$$
R-group 634 (4177-1)
     RDKit          3D

  0  0  0  0  0  0  0  0  0  0999 V3000
M  V30 BEGIN CTAB
M  V30 COUNTS 14 14 0 0 1
M  V30 BEGIN ATOM
M  V30 1 N 73.263800 54.269500 42.125100 0
M  V30 2 C 74.243300 55.052100 41.695000 0
M  V30 3 O 75.272000 54.692000 41.189500 0
M  V30 4 C 73.845100 56.377600 41.528600 0
M  V30 5 C 73.527600 56.961200 40.357800 0
M  V30 6 C 72.872100 58.121400 40.780700 0
M  V30 7 C 72.872500 58.267800 42.124100 0
M  V30 8 N 73.606500 57.214400 42.591200 0
M  V30 9 H 73.637800 56.567400 39.354800 0
M  V30 10 H 72.471700 58.896400 40.173900 0
M  V30 11 H 72.468200 59.033200 42.766800 0
M  V30 12 H 72.420200 54.706600 42.482300 0
M  V30 13 H 73.783600 56.998500 43.561400 0
M  V30 14 R 73.267700 52.836900 42.013900 0
M  V30 END ATOM
M  V30 BEGIN BOND
M  V30 1 1 2 1
M  V30 2 2 3 2
M  V30 3 1 4 2
M  V30 4 2 5 4
M  V30 5 1 6 5
M  V30 6 2 7 6
M  V30 7 1 8 4
M  V30 8 1 8 7
M  V30 9 1 9 5
M  V30 10 1 10 6
M  V30 11 1 11 7
M  V30 12 1 12 1
M  V30 13 1 13 8
M  V30 14 1 14 1
M  V30 END BOND
M  V30 END CTAB
M  END
$$$$
R-group 635 (36329-2)
     RDKit          3D

  0  0  0  0  0  0  0  0  0  0999 V3000
M  V30 BEGIN CTAB
M  V30 COUNTS 20 20 0 0 1
M  V30 BEGIN ATOM
M  V30 1 C 73.714500 54.245700 41.909000 0
M  V30 2 O 72.872200 54.858200 42.524300 0
M  V30 3 N 74.843300 54.735300 41.348200 0
M  V30 4 C 75.314600 56.101900 41.242300 0 CFG=2
M  V30 5 C 74.996300 56.819200 42.525400 0
M  V30 6 C 73.927100 57.616000 42.646100 0
M  V30 7 C 73.068700 58.027200 41.488500 0
M  V30 8 C 73.250500 57.165600 40.220300 0
M  V30 9 C 74.712800 56.772300 39.992500 0
M  V30 10 H 76.399900 56.071200 41.132000 0
M  V30 11 H 75.600100 56.582200 43.391500 0
M  V30 12 H 73.698800 58.057100 43.604100 0
M  V30 13 H 72.071800 58.057600 41.851400 0
M  V30 14 H 73.271300 59.062900 41.324800 0
M  V30 15 H 72.646300 56.266500 40.304000 0
M  V30 16 H 72.879800 57.657500 39.329600 0
M  V30 17 H 75.301300 57.653500 39.725900 0
M  V30 18 H 74.788400 56.108400 39.133900 0
M  V30 19 H 75.447700 54.042800 40.931900 0
M  V30 20 R 73.535500 52.771700 41.922100 0
M  V30 END ATOM
M  V30 BEGIN BOND
M  V30 1 2 2 1
M  V30 2 1 3 1
M  V30 3 1 4 3
M  V30 4 1 5 4
M  V30 5 2 6 5
M  V30 6 1 7 6
M  V30 7 1 8 7
M  V30 8 1 9 4
M  V30 9 1 9 8
M  V30 10 1 4 10 CFG=3
M  V30 11 1 11 5
M  V30 12 1 12 6
M  V30 13 1 13 7
M  V30 14 1 14 7
M  V30 15 1 15 8
M  V30 16 1 16 8
M  V30 17 1 17 9
M  V30 18 1 18 9
M  V30 19 1 19 3
M  V30 20 1 20 1
M  V30 END BOND
M  V30 END CTAB
M  END
$$$$
R-group 636 (22892-1)
     RDKit          3D

  0  0  0  0  0  0  0  0  0  0999 V3000
M  V30 BEGIN CTAB
M  V30 COUNTS 12 12 0 0 1
M  V30 BEGIN ATOM
M  V30 1 O 73.458700 54.229000 42.524400 0
M  V30 2 C 73.137000 55.416800 41.919500 0
M  V30 3 C 74.382600 56.116100 41.621200 0
M  V30 4 C 74.817000 56.616900 40.426300 0
M  V30 5 N 76.049600 57.256200 40.533300 0
M  V30 6 C 76.472100 57.245900 41.766600 0
M  V30 7 S 75.477200 56.435700 42.914600 0
M  V30 8 H 72.473600 55.258100 41.056500 0
M  V30 9 H 72.667700 55.961800 42.740300 0
M  V30 10 H 74.325000 56.569000 39.466800 0
M  V30 11 H 77.428900 57.658100 42.011500 0
M  V30 12 R 73.557000 53.054300 41.797200 0
M  V30 END ATOM
M  V30 BEGIN BOND
M  V30 1 1 2 1
M  V30 2 1 3 2
M  V30 3 2 4 3
M  V30 4 1 5 4
M  V30 5 2 6 5
M  V30 6 1 7 3
M  V30 7 1 7 6
M  V30 8 1 8 2
M  V30 9 1 9 2
M  V30 10 1 10 4
M  V30 11 1 11 6
M  V30 12 1 12 1
M  V30 END BOND
M  V30 END CTAB
M  END
$$$$
R-group 637 (1393-1)
     RDKit          3D

  0  0  0  0  0  0  0  0  0  0999 V3000
M  V30 BEGIN CTAB
M  V30 COUNTS 12 11 0 0 1
M  V30 BEGIN ATOM
M  V30 1 C 73.668300 54.769800 42.924500 0
M  V30 2 O 74.288700 55.515100 41.931700 0
M  V30 3 C 73.280800 56.200500 41.243600 0
M  V30 4 C 73.834900 56.852100 40.036000 0
M  V30 5 F 75.160800 56.858000 40.126400 0
M  V30 6 F 73.477000 56.195300 38.940800 0
M  V30 7 F 73.272200 58.055500 40.107700 0
M  V30 8 H 72.716300 55.229700 43.220100 0
M  V30 9 H 74.315200 54.891900 43.790600 0
M  V30 10 H 72.483000 55.541100 40.916400 0
M  V30 11 H 72.872400 56.951800 41.923700 0
M  V30 12 R 73.535600 53.291300 42.480400 0
M  V30 END ATOM
M  V30 BEGIN BOND
M  V30 1 1 2 1
M  V30 2 1 3 2
M  V30 3 1 4 3
M  V30 4 1 5 4
M  V30 5 1 6 4
M  V30 6 1 7 4
M  V30 7 1 8 1
M  V30 8 1 9 1
M  V30 9 1 10 3
M  V30 10 1 11 3
M  V30 11 1 12 1
M  V30 END BOND
M  V30 END CTAB
M  END
$$$$
R-group 638 (11921-8)
     RDKit          3D

  0  0  0  0  0  0  0  0  0  0999 V3000
M  V30 BEGIN CTAB
M  V30 COUNTS 25 26 0 0 1
M  V30 BEGIN ATOM
M  V30 1 C 74.383100 55.052500 41.581300 0 CFG=2
M  V30 2 C 75.297300 55.391700 42.699000 0 CFG=1
M  V30 3 C 75.509500 56.756000 43.324300 0
M  V30 4 C 74.741500 55.657500 44.028400 0 CFG=2
M  V30 5 C 75.251900 55.117900 45.342400 0
M  V30 6 C 73.384600 56.177100 41.416800 0 CFG=1
M  V30 7 C 73.714600 57.524300 40.824100 0
M  V30 8 C 72.826700 56.572300 40.087500 0 CFG=1
M  V30 9 C 73.395300 56.052100 38.816100 0
M  V30 10 H 75.046300 55.043100 40.724300 0
M  V30 11 H 76.072200 54.694000 42.718700 0
M  V30 12 H 76.474600 57.000100 43.741200 0
M  V30 13 H 74.917500 57.623900 43.055900 0
M  V30 14 H 73.672100 55.786300 44.081300 0
M  V30 15 H 76.330700 55.198000 45.460200 0
M  V30 16 H 74.682600 55.616100 46.124700 0
M  V30 17 H 74.914100 54.121100 45.538000 0
M  V30 18 H 72.872100 56.373100 42.334600 0
M  V30 19 H 73.249700 58.405000 41.263800 0
M  V30 20 H 74.731200 57.657400 40.468300 0
M  V30 21 H 71.768100 56.815200 40.046700 0
M  V30 22 H 74.465800 55.863700 38.868800 0
M  V30 23 H 72.871600 55.155000 38.505400 0
M  V30 24 H 73.271000 56.858000 38.124300 0
M  V30 25 R 73.747200 53.624800 41.785600 0
M  V30 END ATOM
M  V30 BEGIN BOND
M  V30 1 1 2 1
M  V30 2 1 3 2
M  V30 3 1 4 2
M  V30 4 1 4 3
M  V30 5 1 5 4
M  V30 6 1 6 1
M  V30 7 1 7 6
M  V30 8 1 8 6
M  V30 9 1 8 7
M  V30 10 1 9 8
M  V30 11 1 1 10 CFG=3
M  V30 12 1 2 11 CFG=1
M  V30 13 1 12 3
M  V30 14 1 13 3
M  V30 15 1 4 14 CFG=3
M  V30 16 1 15 5
M  V30 17 1 16 5
M  V30 18 1 17 5
M  V30 19 1 6 18 CFG=1
M  V30 20 1 19 7
M  V30 21 1 20 7
M  V30 22 1 8 21 CFG=1
M  V30 23 1 22 9
M  V30 24 1 23 9
M  V30 25 1 24 9
M  V30 26 1 25 1
M  V30 END BOND
M  V30 END CTAB
M  END
$$$$
R-group 639 (31419-1)
     RDKit          3D

  0  0  0  0  0  0  0  0  0  0999 V3000
M  V30 BEGIN CTAB
M  V30 COUNTS 14 14 0 0 1
M  V30 BEGIN ATOM
M  V30 1 C 74.696800 54.898900 42.640000 0
M  V30 2 C 74.216700 56.114700 41.920200 0
M  V30 3 C 74.470900 56.279200 40.550300 0
M  V30 4 C 73.672300 57.195900 39.874500 0
M  V30 5 N 72.872300 58.058000 40.524700 0
M  V30 6 C 72.872300 58.104700 41.843800 0
M  V30 7 C 73.419500 57.068200 42.569500 0
M  V30 8 F 72.872200 56.858000 43.759900 0
M  V30 9 H 74.749400 55.112700 43.708900 0
M  V30 10 H 75.714800 54.774900 42.298000 0
M  V30 11 H 75.142500 55.660400 39.992000 0
M  V30 12 H 73.711500 57.258000 38.802000 0
M  V30 13 H 72.186900 58.805100 42.298900 0
M  V30 14 R 73.924200 53.580300 42.367400 0
M  V30 END ATOM
M  V30 BEGIN BOND
M  V30 1 1 2 1
M  V30 2 2 3 2
M  V30 3 1 4 3
M  V30 4 2 5 4
M  V30 5 1 6 5
M  V30 6 1 7 2
M  V30 7 2 7 6
M  V30 8 1 8 7
M  V30 9 1 9 1
M  V30 10 1 10 1
M  V30 11 1 11 3
M  V30 12 1 12 4
M  V30 13 1 13 6
M  V30 14 1 14 1
M  V30 END BOND
M  V30 END CTAB
M  END
$$$$
R-group 640 (25289-1)
     RDKit          3D

  0  0  0  0  0  0  0  0  0  0999 V3000
M  V30 BEGIN CTAB
M  V30 COUNTS 22 21 0 0 1
M  V30 BEGIN ATOM
M  V30 1 C 70.907200 54.032600 37.869800 0
M  V30 2 C 70.290700 55.149900 38.732000 0
M  V30 3 C 70.871600 56.573600 38.531400 0
M  V30 4 C 72.395300 56.762100 38.896800 0
M  V30 5 C 72.647400 56.756300 40.336300 0
M  V30 6 N 74.024500 56.474800 40.681000 0
M  V30 7 S 74.248400 55.769500 42.216800 0
M  V30 8 O 73.275600 56.456900 43.080100 0
M  V30 9 O 75.672200 55.926600 42.513900 0
M  V30 10 H 70.616600 53.057200 38.265000 0
M  V30 11 H 70.564500 54.058300 36.835700 0
M  V30 12 H 71.994300 54.049800 37.860600 0
M  V30 13 H 70.360900 54.857000 39.779200 0
M  V30 14 H 69.221000 55.183100 38.528100 0
M  V30 15 H 70.278400 57.257600 39.136100 0
M  V30 16 H 70.663300 56.860100 37.503500 0
M  V30 17 H 72.871200 57.657400 38.530000 0
M  V30 18 H 72.985000 55.927800 38.525300 0
M  V30 19 H 72.075100 55.877100 40.511300 0
M  V30 20 H 72.267800 57.633100 40.859500 0
M  V30 21 H 74.550200 55.988400 39.958000 0
M  V30 22 R 73.772000 53.927400 42.028900 0
M  V30 END ATOM
M  V30 BEGIN BOND
M  V30 1 1 2 1
M  V30 2 1 3 2
M  V30 3 1 4 3
M  V30 4 1 5 4
M  V30 5 1 6 5
M  V30 6 1 7 6
M  V30 7 2 8 7
M  V30 8 2 9 7
M  V30 9 1 10 1
M  V30 10 1 11 1
M  V30 11 1 12 1
M  V30 12 1 13 2
M  V30 13 1 14 2
M  V30 14 1 15 3
M  V30 15 1 16 3
M  V30 16 1 17 4
M  V30 17 1 18 4
M  V30 18 1 19 5
M  V30 19 1 20 5
M  V30 20 1 21 6
M  V30 21 1 22 7
M  V30 END BOND
M  V30 END CTAB
M  END
$$$$
R-group 641 (37962-16)
     RDKit          3D

  0  0  0  0  0  0  0  0  0  0999 V3000
M  V30 BEGIN CTAB
M  V30 COUNTS 20 20 0 0 1
M  V30 BEGIN ATOM
M  V30 1 C 74.139400 54.933200 42.997000 0 CFG=2
M  V30 2 C 73.159600 56.017700 42.650300 0
M  V30 3 C 73.881300 57.349700 42.687400 0 CFG=2
M  V30 4 C 73.121400 58.374100 41.830200 0
M  V30 5 C 75.311000 56.973300 42.265700 0 CFG=2
M  V30 6 O 75.423000 56.858000 40.865200 0
M  V30 7 C 75.511100 55.565000 42.823500 0 CFG=1
M  V30 8 O 76.072300 55.657900 44.124700 0
M  V30 9 H 74.072300 54.788600 44.062700 0
M  V30 10 H 72.872300 55.865100 41.614500 0
M  V30 11 H 72.297400 55.993500 43.324800 0
M  V30 12 H 73.890800 57.691100 43.722800 0
M  V30 13 H 73.272900 58.266800 40.756600 0
M  V30 14 H 72.071300 58.248100 42.002900 0
M  V30 15 H 73.272400 59.396400 42.124600 0
M  V30 16 H 76.075300 57.657600 42.630500 0
M  V30 17 H 76.072200 54.959100 42.124500 0
M  V30 18 H 74.702000 56.332500 40.555400 0
M  V30 19 H 76.871200 56.159600 44.070900 0
M  V30 20 R 73.872500 53.569500 42.287800 0
M  V30 END ATOM
M  V30 BEGIN BOND
M  V30 1 1 2 1
M  V30 2 1 3 2
M  V30 3 1 4 3
M  V30 4 1 5 3
M  V30 5 1 6 5
M  V30 6 1 7 1
M  V30 7 1 7 5
M  V30 8 1 8 7
M  V30 9 1 1 9 CFG=1
M  V30 10 1 10 2
M  V30 11 1 11 2
M  V30 12 1 3 12 CFG=1
M  V30 13 1 13 4
M  V30 14 1 14 4
M  V30 15 1 15 4
M  V30 16 1 5 16 CFG=1
M  V30 17 1 7 17 CFG=3
M  V30 18 1 18 6
M  V30 19 1 19 8
M  V30 20 1 20 1
M  V30 END BOND
M  V30 END CTAB
M  END
$$$$
R-group 642 (2485-1)
     RDKit          3D

  0  0  0  0  0  0  0  0  0  0999 V3000
M  V30 BEGIN CTAB
M  V30 COUNTS 16 15 0 0 1
M  V30 BEGIN ATOM
M  V30 1 C 73.702800 55.229300 42.159100 0 CFG=1
M  V30 2 C 73.465700 56.049500 43.428900 0
M  V30 3 N 75.067300 55.532900 41.746700 0
M  V30 4 C 75.155900 56.651900 40.840800 0
M  V30 5 C 73.904300 56.825300 39.983000 0
M  V30 6 F 74.472200 57.376900 38.973500 0
M  V30 7 F 73.322300 55.813000 39.400700 0
M  V30 8 F 73.013200 57.659300 40.530300 0
M  V30 9 H 72.916700 55.594100 41.520300 0
M  V30 10 H 72.424500 56.055700 43.725500 0
M  V30 11 H 74.054800 55.658000 44.253900 0
M  V30 12 H 73.755700 57.089800 43.286400 0
M  V30 13 H 75.454400 54.718100 41.287100 0
M  V30 14 H 75.384900 57.573500 41.373500 0
M  V30 15 H 76.051000 56.479200 40.218600 0
M  V30 16 R 73.441900 53.700600 42.020200 0
M  V30 END ATOM
M  V30 BEGIN BOND
M  V30 1 1 2 1
M  V30 2 1 3 1
M  V30 3 1 4 3
M  V30 4 1 5 4
M  V30 5 1 6 5
M  V30 6 1 7 5
M  V30 7 1 8 5
M  V30 8 1 1 9 CFG=3
M  V30 9 1 10 2
M  V30 10 1 11 2
M  V30 11 1 12 2
M  V30 12 1 13 3
M  V30 13 1 14 4
M  V30 14 1 15 4
M  V30 15 1 16 1
M  V30 END BOND
M  V30 END CTAB
M  END
$$$$
R-group 643 (31389-1)
     RDKit          3D

  0  0  0  0  0  0  0  0  0  0999 V3000
M  V30 BEGIN CTAB
M  V30 COUNTS 21 20 0 0 1
M  V30 BEGIN ATOM
M  V30 1 C 72.477300 57.722900 43.468300 0
M  V30 2 C 72.784000 56.201000 43.506800 0
M  V30 3 C 73.552400 55.511500 42.306100 0 CFG=1
M  V30 4 C 75.004600 56.037700 42.233300 0
M  V30 5 C 75.789800 55.536400 41.015600 0
M  V30 6 C 75.130700 57.560600 42.205100 0
M  V30 7 O 75.659600 55.658100 43.405900 0
M  V30 8 H 71.714600 57.917100 44.179400 0
M  V30 9 H 73.257300 58.406600 43.744700 0
M  V30 10 H 72.075500 58.064800 42.502800 0
M  V30 11 H 71.803700 55.707500 43.620700 0
M  V30 12 H 73.272100 56.060700 44.466700 0
M  V30 13 H 73.086600 55.881800 41.407600 0
M  V30 14 H 75.273800 55.883400 40.107200 0
M  V30 15 H 75.831100 54.463100 41.050700 0
M  V30 16 H 76.840600 55.872300 40.993900 0
M  V30 17 H 74.310100 58.051100 41.642700 0
M  V30 18 H 75.111900 57.929400 43.240100 0
M  V30 19 H 76.080700 57.853800 41.744800 0
M  V30 20 H 76.510300 56.086300 43.423100 0
M  V30 21 R 73.407300 53.924600 42.163000 0
M  V30 END ATOM
M  V30 BEGIN BOND
M  V30 1 1 2 1
M  V30 2 1 3 2
M  V30 3 1 4 3
M  V30 4 1 5 4
M  V30 5 1 6 4
M  V30 6 1 7 4
M  V30 7 1 8 1
M  V30 8 1 9 1
M  V30 9 1 10 1
M  V30 10 1 11 2
M  V30 11 1 12 2
M  V30 12 1 3 13 CFG=3
M  V30 13 1 14 5
M  V30 14 1 15 5
M  V30 15 1 16 5
M  V30 16 1 17 6
M  V30 17 1 18 6
M  V30 18 1 19 6
M  V30 19 1 20 7
M  V30 20 1 21 3
M  V30 END BOND
M  V30 END CTAB
M  END
$$$$
R-group 644 (6714-1)
     RDKit          3D

  0  0  0  0  0  0  0  0  0  0999 V3000
M  V30 BEGIN CTAB
M  V30 COUNTS 13 13 0 0 1
M  V30 BEGIN ATOM
M  V30 1 C 74.870700 55.263900 42.472800 0
M  V30 2 C 74.196200 56.502300 41.953600 0
M  V30 3 C 73.672000 57.532600 42.624200 0
M  V30 4 C 72.872200 58.309800 41.683400 0
M  V30 5 O 72.074500 59.256500 41.848600 0
M  V30 6 N 73.018300 57.657500 40.527000 0
M  V30 7 N 73.892800 56.624600 40.638500 0
M  V30 8 H 75.112000 55.439400 43.522200 0
M  V30 9 H 75.827700 55.182300 41.958600 0
M  V30 10 H 73.686300 57.671300 43.694300 0
M  V30 11 H 72.624200 57.877600 39.624400 0
M  V30 12 H 73.849400 55.836100 40.007500 0
M  V30 13 R 74.048500 53.948400 42.321400 0
M  V30 END ATOM
M  V30 BEGIN BOND
M  V30 1 1 2 1
M  V30 2 2 3 2
M  V30 3 1 4 3
M  V30 4 2 5 4
M  V30 5 1 6 4
M  V30 6 1 7 2
M  V30 7 1 7 6
M  V30 8 1 8 1
M  V30 9 1 9 1
M  V30 10 1 10 3
M  V30 11 1 11 6
M  V30 12 1 12 7
M  V30 13 1 13 1
M  V30 END BOND
M  V30 END CTAB
M  END
$$$$
