13
     RDKit          3D

  0  0  0  0  0  0  0  0  0  0999 V3000
M  V30 BEGIN CTAB
M  V30 COUNTS 44 46 0 0 1
M  V30 BEGIN ATOM
M  V30 1 C -2.182453 1.445723 -0.076336 0
M  V30 2 C -0.655243 1.451988 0.074597 0
M  V30 3 C -0.037752 0.041288 -0.007870 0
M  V30 4 C 1.516220 0.011711 0.036717 0 CFG=1
M  V30 5 C 2.098987 0.710263 1.297336 0
M  V30 6 N 3.547567 0.561005 1.347833 0
M  V30 7 C 3.863387 -0.846535 1.566508 0
M  V30 8 C 3.192411 -1.817194 0.586509 0
M  V30 9 C 2.106030 -1.409129 -0.128593 0
M  V30 10 N 1.452170 -2.255209 -0.988234 0
M  V30 11 C 1.791650 -3.547412 -1.218254 0
M  V30 12 O 1.152324 -4.233999 -2.013584 0
M  V30 13 C 2.940384 -4.024117 -0.450363 0
M  V30 14 C 3.660952 -3.203299 0.376241 0
M  V30 15 C 4.733773 -3.766879 1.241451 0
M  V30 16 C 4.633153 -3.716289 2.637000 0
M  V30 17 C 5.640307 -4.245873 3.438984 0
M  V30 18 C 6.760832 -4.833452 2.852048 0
M  V30 19 C 7.850924 -5.416524 3.733327 0
M  V30 20 C 6.871834 -4.890977 1.462302 0
M  V30 21 C 5.862390 -4.360902 0.663218 0
M  V30 22 C 3.279242 -5.410131 -0.575470 0
M  V30 23 N 3.534318 -6.534689 -0.680164 0
M  V30 24 H -2.583552 2.457704 -0.013904 0
M  V30 25 H -2.484101 1.029656 -1.038176 0
M  V30 26 H -2.655533 0.854444 0.708444 0
M  V30 27 H -0.403612 1.916503 1.028488 0
M  V30 28 H -0.223284 2.086916 -0.700352 0
M  V30 29 H -0.388513 -0.420215 -0.932176 0
M  V30 30 H -0.433743 -0.572441 0.803138 0
M  V30 31 H 1.863807 0.577991 -0.829539 0
M  V30 32 H 1.881272 1.778173 1.274054 0
M  V30 33 H 1.643142 0.318699 2.208838 0
M  V30 34 H 3.584626 -1.103040 2.589000 0
M  V30 35 H 4.946400 -0.956331 1.503696 0
M  V30 36 H 3.763760 -3.281198 3.107494 0
M  V30 37 H 5.545713 -4.203678 4.514408 0
M  V30 38 H 8.626853 -5.918654 3.153870 0
M  V30 39 H 7.424502 -6.143873 4.425162 0
M  V30 40 H 8.314028 -4.630677 4.330902 0
M  V30 41 H 7.735604 -5.344955 0.998301 0
M  V30 42 H 5.961347 -4.410050 -0.411851 0
M  V30 43 H 3.949269 0.845164 0.465540 0
M  V30 44 H 0.649769 -1.924796 -1.503554 0
M  V30 END ATOM
M  V30 BEGIN BOND
M  V30 1 1 2 1
M  V30 2 1 3 2
M  V30 3 1 4 3
M  V30 4 1 5 4
M  V30 5 1 6 5
M  V30 6 1 7 6
M  V30 7 1 8 7
M  V30 8 1 9 4
M  V30 9 2 9 8
M  V30 10 1 10 9
M  V30 11 1 11 10
M  V30 12 2 12 11
M  V30 13 1 13 11
M  V30 14 1 14 8
M  V30 15 2 14 13
M  V30 16 1 15 14
M  V30 17 2 16 15
M  V30 18 1 17 16
M  V30 19 2 18 17
M  V30 20 1 19 18
M  V30 21 1 20 18
M  V30 22 1 21 15
M  V30 23 2 21 20
M  V30 24 1 22 13
M  V30 25 3 23 22
M  V30 26 1 24 1
M  V30 27 1 25 1
M  V30 28 1 26 1
M  V30 29 1 27 2
M  V30 30 1 28 2
M  V30 31 1 29 3
M  V30 32 1 30 3
M  V30 33 1 4 31 CFG=3
M  V30 34 1 32 5
M  V30 35 1 33 5
M  V30 36 1 34 7
M  V30 37 1 35 7
M  V30 38 1 36 16
M  V30 39 1 37 17
M  V30 40 1 38 19
M  V30 41 1 39 19
M  V30 42 1 40 19
M  V30 43 1 41 20
M  V30 44 1 42 21
M  V30 45 1 43 6
M  V30 46 1 44 10
M  V30 END BOND
M  V30 END CTAB
M  END
>  <r_epik_State_Penalty>  (1) 
0.39229999999999998

$$$$
13
     RDKit          3D

  0  0  0  0  0  0  0  0  0  0999 V3000
M  V30 BEGIN CTAB
M  V30 COUNTS 44 46 0 0 1
M  V30 BEGIN ATOM
M  V30 1 C -2.281626 1.273256 0.431550 0
M  V30 2 C -0.772264 1.420683 0.195171 0
M  V30 3 C -0.071106 0.072505 -0.070401 0
M  V30 4 C 1.483694 0.119609 -0.116480 0 CFG=1
M  V30 5 C 2.094796 -1.297907 -0.038842 0
M  V30 6 N 1.897842 -1.991078 -1.391489 0 CHG=1
M  V30 7 C 2.717954 -1.298949 -2.491441 0
M  V30 8 C 2.564954 0.235109 -2.457229 0
M  V30 9 C 2.022579 0.895150 -1.330740 0
M  V30 10 N 1.924144 2.244371 -1.278005 0
M  V30 11 C 2.324151 2.999866 -2.321015 0
M  V30 12 O 2.151213 4.248825 -2.105340 0 CHG=-1
M  V30 13 C 2.864447 2.435026 -3.498976 0
M  V30 14 C 2.985214 1.024279 -3.553771 0
M  V30 15 C 3.559022 0.338949 -4.753182 0
M  V30 16 C 2.797777 0.199903 -5.917994 0
M  V30 17 C 3.328566 -0.443616 -7.032521 0
M  V30 18 C 4.625349 -0.957141 -6.987487 0
M  V30 19 C 5.206777 -1.648422 -8.207641 0
M  V30 20 C 5.393387 -0.816906 -5.830530 0
M  V30 21 C 4.860120 -0.172098 -4.717983 0
M  V30 22 C 3.312304 3.261673 -4.637003 0
M  V30 23 N 3.663726 3.908056 -5.530322 0
M  V30 24 H -2.743702 2.245206 0.606859 0
M  V30 25 H -2.775554 0.823194 -0.430271 0
M  V30 26 H -2.488166 0.648546 1.301200 0
M  V30 27 H -0.322066 1.906728 1.061767 0
M  V30 28 H -0.622778 2.094499 -0.648255 0
M  V30 29 H -0.457189 -0.355765 -0.996780 0
M  V30 30 H -0.371785 -0.616366 0.720826 0
M  V30 31 H 1.815929 0.639431 0.784407 0
M  V30 32 H 3.169663 -1.292528 0.151559 0
M  V30 33 H 1.609985 -1.934382 0.702199 0
M  V30 34 H 2.357475 -1.748751 -3.417322 0
M  V30 35 H 3.751633 -1.598288 -2.312712 0
M  V30 36 H 1.792211 0.593105 -5.959804 0
M  V30 37 H 2.731119 -0.542268 -7.927342 0
M  V30 38 H 6.297024 -1.612808 -8.205131 0
M  V30 39 H 4.879088 -1.152447 -9.122199 0
M  V30 40 H 4.884241 -2.689085 -8.248713 0
M  V30 41 H 6.400552 -1.205700 -5.789963 0
M  V30 42 H 5.460096 -0.067860 -3.825513 0
M  V30 43 H 0.917792 -1.968143 -1.635133 0
M  V30 44 H 2.174106 -2.960505 -1.326615 0
M  V30 END ATOM
M  V30 BEGIN BOND
M  V30 1 1 2 1
M  V30 2 1 3 2
M  V30 3 1 4 3
M  V30 4 1 5 4
M  V30 5 1 6 5
M  V30 6 1 7 6
M  V30 7 1 8 7
M  V30 8 1 9 4
M  V30 9 2 9 8
M  V30 10 1 10 9
M  V30 11 2 11 10
M  V30 12 1 12 11
M  V30 13 1 13 11
M  V30 14 1 14 8
M  V30 15 2 14 13
M  V30 16 1 15 14
M  V30 17 2 16 15
M  V30 18 1 17 16
M  V30 19 2 18 17
M  V30 20 1 19 18
M  V30 21 1 20 18
M  V30 22 1 21 15
M  V30 23 2 21 20
M  V30 24 1 22 13
M  V30 25 3 23 22
M  V30 26 1 24 1
M  V30 27 1 25 1
M  V30 28 1 26 1
M  V30 29 1 27 2
M  V30 30 1 28 2
M  V30 31 1 29 3
M  V30 32 1 30 3
M  V30 33 1 4 31 CFG=1
M  V30 34 1 32 5
M  V30 35 1 33 5
M  V30 36 1 34 7
M  V30 37 1 35 7
M  V30 38 1 36 16
M  V30 39 1 37 17
M  V30 40 1 38 19
M  V30 41 1 39 19
M  V30 42 1 40 19
M  V30 43 1 41 20
M  V30 44 1 42 21
M  V30 45 1 43 6
M  V30 46 1 44 6
M  V30 END BOND
M  V30 END CTAB
M  END
>  <r_epik_State_Penalty>  (2) 
0.62580000000000002

$$$$
18
     RDKit          3D

  0  0  0  0  0  0  0  0  0  0999 V3000
M  V30 BEGIN CTAB
M  V30 COUNTS 42 44 0 0 1
M  V30 BEGIN ATOM
M  V30 1 C -0.037618 0.017691 -0.008642 0 CFG=1
M  V30 2 C -0.620513 1.459287 -0.029492 0
M  V30 3 N -2.066205 1.430961 -0.211340 0
M  V30 4 C -2.362357 0.929101 -1.549055 0
M  V30 5 C -1.674914 -0.393482 -1.904109 0
M  V30 6 C -0.599821 -0.818430 -1.182525 0
M  V30 7 N 0.074438 -1.970041 -1.508301 0
M  V30 8 C -0.233826 -2.788071 -2.546371 0
M  V30 9 O 0.422758 -3.804336 -2.765319 0
M  V30 10 C -1.375416 -2.353186 -3.349125 0
M  V30 11 C -2.091465 -1.229937 -3.043134 0
M  V30 12 C -3.200418 -0.777091 -3.915894 0
M  V30 13 C -3.050690 0.363884 -4.710640 0
M  V30 14 C -4.084740 0.780155 -5.544951 0
M  V30 15 C -5.274572 0.051377 -5.590881 0
M  V30 16 C -6.355593 0.482237 -6.465195 0
M  V30 17 C -5.430106 -1.091670 -4.804684 0
M  V30 18 C -4.393616 -1.504289 -3.971602 0
M  V30 19 C -1.724173 -3.139911 -4.493407 0
M  V30 20 N -2.018550 -3.762554 -5.423961 0
M  V30 21 N -7.215017 0.824527 -7.160462 0
M  V30 22 C 1.514995 -0.007963 0.071140 0
M  V30 23 C 2.115372 0.784021 1.249923 0
M  V30 24 C 3.641075 0.645644 1.345321 0
M  V30 25 H -0.404995 -0.461626 0.901006 0
M  V30 26 H -0.419947 1.961999 0.916716 0
M  V30 27 H -0.150539 2.061887 -0.809056 0
M  V30 28 H -2.478908 0.802184 0.463198 0
M  V30 29 H -2.087297 1.691079 -2.279603 0
M  V30 30 H -3.443581 0.807854 -1.622910 0
M  V30 31 H -2.129406 0.928214 -4.686236 0
M  V30 32 H -3.950231 1.664704 -6.152197 0
M  V30 33 H -6.345163 -1.666902 -4.834103 0
M  V30 34 H -4.518801 -2.392794 -3.369393 0
M  V30 35 H 1.858821 -1.039967 0.155353 0
M  V30 36 H 1.930300 0.372419 -0.863820 0
M  V30 37 H 1.868951 1.841891 1.154938 0
M  V30 38 H 1.667297 0.446471 2.185407 0
M  V30 39 H 4.031288 1.214836 2.189488 0
M  V30 40 H 3.937408 -0.394604 1.483495 0
M  V30 41 H 4.129319 1.016126 0.443231 0
M  V30 42 H 0.870010 -2.257453 -0.957678 0
M  V30 END ATOM
M  V30 BEGIN BOND
M  V30 1 1 2 1
M  V30 2 1 3 2
M  V30 3 1 4 3
M  V30 4 1 5 4
M  V30 5 1 6 1
M  V30 6 2 6 5
M  V30 7 1 7 6
M  V30 8 1 8 7
M  V30 9 2 9 8
M  V30 10 1 10 8
M  V30 11 1 11 5
M  V30 12 2 11 10
M  V30 13 1 12 11
M  V30 14 2 13 12
M  V30 15 1 14 13
M  V30 16 2 15 14
M  V30 17 1 16 15
M  V30 18 1 17 15
M  V30 19 1 18 12
M  V30 20 2 18 17
M  V30 21 1 19 10
M  V30 22 3 20 19
M  V30 23 3 21 16
M  V30 24 1 22 1
M  V30 25 1 23 22
M  V30 26 1 24 23
M  V30 27 1 1 25 CFG=1
M  V30 28 1 26 2
M  V30 29 1 27 2
M  V30 30 1 28 3
M  V30 31 1 29 4
M  V30 32 1 30 4
M  V30 33 1 31 13
M  V30 34 1 32 14
M  V30 35 1 33 17
M  V30 36 1 34 18
M  V30 37 1 35 22
M  V30 38 1 36 22
M  V30 39 1 37 23
M  V30 40 1 38 23
M  V30 41 1 39 24
M  V30 42 1 40 24
M  V30 43 1 41 24
M  V30 44 1 42 7
M  V30 END BOND
M  V30 END CTAB
M  END
>  <r_epik_State_Penalty>  (3) 
0.39229999999999998

$$$$
18
     RDKit          3D

  0  0  0  0  0  0  0  0  0  0999 V3000
M  V30 BEGIN CTAB
M  V30 COUNTS 42 44 0 0 1
M  V30 BEGIN ATOM
M  V30 1 C 0.022416 -0.110374 -0.135646 0 CFG=1
M  V30 2 C -0.579202 1.311652 -0.060519 0
M  V30 3 N -0.376225 2.003168 -1.413147 0 CHG=1
M  V30 4 C -1.200323 1.315948 -2.513313 0
M  V30 5 C -1.052990 -0.218470 -2.480145 0
M  V30 6 C -0.511192 -0.881667 -1.355198 0
M  V30 7 N -0.413530 -2.231216 -1.306712 0
M  V30 8 C -0.814969 -2.983880 -2.351311 0
M  V30 9 O -0.641592 -4.233256 -2.140355 0 CHG=-1
M  V30 10 C -1.358944 -2.415661 -3.525888 0
M  V30 11 C -1.479932 -1.005018 -3.575611 0
M  V30 12 C -2.069632 -0.317971 -4.765625 0
M  V30 13 C -1.308169 -0.130304 -5.922950 0
M  V30 14 C -1.857946 0.509305 -7.030828 0
M  V30 15 C -3.176657 0.965199 -6.984591 0
M  V30 16 C -3.754005 1.633490 -8.141511 0
M  V30 17 C -3.943921 0.781856 -5.832923 0
M  V30 18 C -3.389315 0.141770 -4.727965 0
M  V30 19 C -1.808748 -3.238003 -4.666451 0
M  V30 20 N -2.161929 -3.880755 -5.561676 0
M  V30 21 N -4.212986 2.165154 -9.061302 0
M  V30 22 C 1.576811 -0.075998 -0.071619 0
M  V30 23 C 2.262784 -1.432603 0.192056 0
M  V30 24 C 3.763868 -1.299103 0.482826 0
M  V30 25 H -0.323075 -0.628310 0.761306 0
M  V30 26 H -1.654380 1.313341 0.128098 0
M  V30 27 H -0.091887 1.945586 0.681048 0
M  V30 28 H 0.603764 1.974380 -1.655921 0
M  V30 29 H -0.836589 1.764188 -3.438653 0
M  V30 30 H -2.232713 1.619995 -2.334813 0
M  V30 31 H -0.287754 -0.482973 -5.964001 0
M  V30 32 H -1.254041 0.643796 -7.917513 0
M  V30 33 H -4.967000 1.128206 -5.784733 0
M  V30 34 H -3.987754 -0.000839 -3.839628 0
M  V30 35 H 1.977866 0.356485 -0.989696 0
M  V30 36 H 1.872494 0.604167 0.729006 0
M  V30 37 H 1.781824 -1.931915 1.034174 0
M  V30 38 H 2.137225 -2.089714 -0.668422 0
M  V30 39 H 4.213595 -2.277041 0.656569 0
M  V30 40 H 4.290133 -0.836644 -0.352699 0
M  V30 41 H 3.943321 -0.692025 1.370848 0
M  V30 42 H -0.646552 2.974314 -1.348489 0
M  V30 END ATOM
M  V30 BEGIN BOND
M  V30 1 1 2 1
M  V30 2 1 3 2
M  V30 3 1 4 3
M  V30 4 1 5 4
M  V30 5 1 6 1
M  V30 6 2 6 5
M  V30 7 1 7 6
M  V30 8 2 8 7
M  V30 9 1 9 8
M  V30 10 1 10 8
M  V30 11 1 11 5
M  V30 12 2 11 10
M  V30 13 1 12 11
M  V30 14 2 13 12
M  V30 15 1 14 13
M  V30 16 2 15 14
M  V30 17 1 16 15
M  V30 18 1 17 15
M  V30 19 1 18 12
M  V30 20 2 18 17
M  V30 21 1 19 10
M  V30 22 3 20 19
M  V30 23 3 21 16
M  V30 24 1 22 1
M  V30 25 1 23 22
M  V30 26 1 24 23
M  V30 27 1 1 25 CFG=1
M  V30 28 1 26 2
M  V30 29 1 27 2
M  V30 30 1 28 3
M  V30 31 1 29 4
M  V30 32 1 30 4
M  V30 33 1 31 13
M  V30 34 1 32 14
M  V30 35 1 33 17
M  V30 36 1 34 18
M  V30 37 1 35 22
M  V30 38 1 36 22
M  V30 39 1 37 23
M  V30 40 1 38 23
M  V30 41 1 39 24
M  V30 42 1 40 24
M  V30 43 1 41 24
M  V30 44 1 42 3
M  V30 END BOND
M  V30 END CTAB
M  END
>  <r_epik_State_Penalty>  (4) 
0.62580000000000002

$$$$
19
     RDKit          3D

  0  0  0  0  0  0  0  0  0  0999 V3000
M  V30 BEGIN CTAB
M  V30 COUNTS 40 42 0 0 1
M  V30 BEGIN ATOM
M  V30 1 C -2.125971 1.511361 -0.149000 0
M  V30 2 C -0.602666 1.487448 0.037681 0
M  V30 3 C -0.011196 0.066973 -0.057786 0
M  V30 4 C 1.540163 -0.002338 0.019791 0 CFG=1
M  V30 5 C 2.121136 0.701024 1.279684 0
M  V30 6 N 3.566435 0.524646 1.349303 0
M  V30 7 C 3.859521 -0.885156 1.586360 0
M  V30 8 C 3.164086 -1.855086 0.625504 0
M  V30 9 C 2.090440 -1.442527 -0.105168 0
M  V30 10 N 1.405395 -2.306150 -0.925704 0
M  V30 11 C 1.701422 -3.619691 -1.098709 0
M  V30 12 O 1.033637 -4.322543 -1.854899 0
M  V30 13 C 2.845431 -4.095357 -0.323036 0
M  V30 14 C 3.565073 -3.264504 0.487833 0
M  V30 15 C 4.689267 -3.781034 1.298827 0
M  V30 16 C 4.539328 -3.990101 2.675845 0
M  V30 17 C 5.617801 -4.497938 3.402427 0
M  V30 18 N 6.810331 -4.807399 2.833320 0
M  V30 19 C 6.941708 -4.611243 1.496854 0
M  V30 20 C 5.912976 -4.106606 0.699397 0
M  V30 21 C 3.196928 -5.479237 -0.427216 0
M  V30 22 N 3.493968 -6.595948 -0.496563 0
M  V30 23 H -2.511767 2.528126 -0.069839 0
M  V30 24 H -2.411747 1.124865 -1.127895 0
M  V30 25 H -2.627220 0.907896 0.608677 0
M  V30 26 H -0.365048 1.927465 1.006674 0
M  V30 27 H -0.140599 2.129304 -0.713568 0
M  V30 28 H -0.348376 -0.370729 -0.998710 0
M  V30 29 H -0.439428 -0.551939 0.732726 0
M  V30 30 H 1.919986 0.537199 -0.850105 0
M  V30 31 H 1.924550 1.772461 1.239505 0
M  V30 32 H 1.647100 0.330543 2.190694 0
M  V30 33 H 3.592349 -1.134748 2.614285 0
M  V30 34 H 4.939699 -1.012954 1.509964 0
M  V30 35 H 3.607066 -3.763788 3.173133 0
M  V30 36 H 5.533737 -4.667327 4.465897 0
M  V30 37 H 7.896906 -4.869726 1.064090 0
M  V30 38 H 6.063698 -3.972134 -0.362032 0
M  V30 39 H 3.981574 0.792239 0.468116 0
M  V30 40 H 0.609687 -1.973607 -1.450178 0
M  V30 END ATOM
M  V30 BEGIN BOND
M  V30 1 1 2 1
M  V30 2 1 3 2
M  V30 3 1 4 3
M  V30 4 1 5 4
M  V30 5 1 6 5
M  V30 6 1 7 6
M  V30 7 1 8 7
M  V30 8 1 9 4
M  V30 9 2 9 8
M  V30 10 1 10 9
M  V30 11 1 11 10
M  V30 12 2 12 11
M  V30 13 1 13 11
M  V30 14 1 14 8
M  V30 15 2 14 13
M  V30 16 1 15 14
M  V30 17 2 16 15
M  V30 18 1 17 16
M  V30 19 2 18 17
M  V30 20 1 19 18
M  V30 21 1 20 15
M  V30 22 2 20 19
M  V30 23 1 21 13
M  V30 24 3 22 21
M  V30 25 1 23 1
M  V30 26 1 24 1
M  V30 27 1 25 1
M  V30 28 1 26 2
M  V30 29 1 27 2
M  V30 30 1 28 3
M  V30 31 1 29 3
M  V30 32 1 4 30 CFG=3
M  V30 33 1 31 5
M  V30 34 1 32 5
M  V30 35 1 33 7
M  V30 36 1 34 7
M  V30 37 1 35 16
M  V30 38 1 36 17
M  V30 39 1 37 19
M  V30 40 1 38 20
M  V30 41 1 39 6
M  V30 42 1 40 10
M  V30 END BOND
M  V30 END CTAB
M  END
>  <r_epik_State_Penalty>  (5) 
0.49580000000000002

$$$$
19
     RDKit          3D

  0  0  0  0  0  0  0  0  0  0999 V3000
M  V30 BEGIN CTAB
M  V30 COUNTS 40 42 0 0 1
M  V30 BEGIN ATOM
M  V30 1 C -2.278951 1.321914 0.383147 0
M  V30 2 C -0.761209 1.442074 0.188967 0
M  V30 3 C -0.083378 0.085761 -0.095848 0
M  V30 4 C 1.472457 0.104410 -0.127014 0 CFG=1
M  V30 5 C 2.057300 -1.324326 -0.049324 0
M  V30 6 N 1.860333 -2.009865 -1.405953 0 CHG=1
M  V30 7 C 2.700506 -1.329042 -2.498007 0
M  V30 8 C 2.571078 0.206718 -2.459910 0
M  V30 9 C 2.035161 0.873699 -1.334438 0
M  V30 10 N 1.965713 2.224816 -1.276890 0
M  V30 11 C 2.389731 2.975853 -2.314093 0
M  V30 12 O 2.241626 4.227440 -2.096193 0 CHG=-1
M  V30 13 C 2.925675 2.403671 -3.490336 0
M  V30 14 C 3.015967 0.991633 -3.548590 0
M  V30 15 C 3.584205 0.300888 -4.744866 0
M  V30 16 C 2.765493 -0.039968 -5.829082 0
M  V30 17 C 3.333568 -0.686506 -6.928162 0
M  V30 18 N 4.651458 -1.002764 -6.997345 0
M  V30 19 C 5.437030 -0.666055 -5.943231 0
M  V30 20 C 4.946244 -0.020163 -4.806970 0
M  V30 21 C 3.388654 3.221199 -4.628672 0
M  V30 22 N 3.752115 3.860277 -5.522405 0
M  V30 23 H -2.722312 2.296609 0.589027 0
M  V30 24 H -2.761038 0.921404 -0.509313 0
M  V30 25 H -2.522403 0.665839 1.219468 0
M  V30 26 H -0.322292 1.893740 1.079544 0
M  V30 27 H -0.576408 2.135672 -0.630946 0
M  V30 28 H -0.468369 -0.318222 -1.033642 0
M  V30 29 H -0.405065 -0.611323 0.679684 0
M  V30 30 H 1.806775 0.614796 0.778561 0
M  V30 31 H 3.130279 -1.338813 0.151088 0
M  V30 32 H 1.554268 -1.954437 0.685165 0
M  V30 33 H 2.338218 -1.771901 -3.426319 0
M  V30 34 H 3.728534 -1.644416 -2.314741 0
M  V30 35 H 1.710505 0.193270 -5.819473 0
M  V30 36 H 2.727233 -0.960918 -7.778855 0
M  V30 37 H 6.483234 -0.923026 -6.021466 0
M  V30 38 H 5.610968 0.229684 -3.992556 0
M  V30 39 H 0.882788 -1.969540 -1.657266 0
M  V30 40 H 2.119271 -2.984091 -1.341734 0
M  V30 END ATOM
M  V30 BEGIN BOND
M  V30 1 1 2 1
M  V30 2 1 3 2
M  V30 3 1 4 3
M  V30 4 1 5 4
M  V30 5 1 6 5
M  V30 6 1 7 6
M  V30 7 1 8 7
M  V30 8 1 9 4
M  V30 9 2 9 8
M  V30 10 1 10 9
M  V30 11 2 11 10
M  V30 12 1 12 11
M  V30 13 1 13 11
M  V30 14 1 14 8
M  V30 15 2 14 13
M  V30 16 1 15 14
M  V30 17 2 16 15
M  V30 18 1 17 16
M  V30 19 2 18 17
M  V30 20 1 19 18
M  V30 21 1 20 15
M  V30 22 2 20 19
M  V30 23 1 21 13
M  V30 24 3 22 21
M  V30 25 1 23 1
M  V30 26 1 24 1
M  V30 27 1 25 1
M  V30 28 1 26 2
M  V30 29 1 27 2
M  V30 30 1 28 3
M  V30 31 1 29 3
M  V30 32 1 4 30 CFG=1
M  V30 33 1 31 5
M  V30 34 1 32 5
M  V30 35 1 33 7
M  V30 36 1 34 7
M  V30 37 1 35 16
M  V30 38 1 36 17
M  V30 39 1 37 19
M  V30 40 1 38 20
M  V30 41 1 39 6
M  V30 42 1 40 6
M  V30 END BOND
M  V30 END CTAB
M  END
>  <r_epik_State_Penalty>  (6) 
0.50309999999999999

$$$$
20
     RDKit          3D

  0  0  0  0  0  0  0  0  0  0999 V3000
M  V30 BEGIN CTAB
M  V30 COUNTS 43 45 0 0 1
M  V30 BEGIN ATOM
M  V30 1 C -2.130846 1.524916 -0.170984 0
M  V30 2 C -0.609766 1.496264 0.032103 0
M  V30 3 C -0.020083 0.074965 -0.065936 0
M  V30 4 C 1.530318 0.002537 0.025138 0 CFG=1
M  V30 5 C 2.099519 0.698774 1.294039 0
M  V30 6 N 3.542890 0.515990 1.382164 0
M  V30 7 C 3.826265 -0.896061 1.616866 0
M  V30 8 C 3.141828 -1.858479 0.640707 0
M  V30 9 C 2.079793 -1.437772 -0.102261 0
M  V30 10 N 1.408326 -2.291278 -0.943874 0
M  V30 11 C 1.711798 -3.600868 -1.132669 0
M  V30 12 O 1.057878 -4.293991 -1.909950 0
M  V30 13 C 2.845736 -4.085029 -0.347328 0
M  V30 14 C 3.544571 -3.267017 0.494434 0
M  V30 15 C 4.669428 -3.788807 1.302478 0
M  V30 16 C 4.553557 -3.945223 2.689575 0
M  V30 17 C 5.629263 -4.442020 3.427824 0
M  V30 18 C 6.804515 -4.775639 2.749136 0
M  V30 19 C 8.014533 -5.321320 3.483429 0
M  V30 20 N 6.941049 -4.638626 1.404834 0
M  V30 21 C 5.883034 -4.153340 0.706119 0
M  V30 22 C 3.205323 -5.465222 -0.471240 0
M  V30 23 N 3.506462 -6.579863 -0.554956 0
M  V30 24 H -2.514878 2.542106 -0.090847 0
M  V30 25 H -2.407322 1.143615 -1.154571 0
M  V30 26 H -2.641560 0.919564 0.578648 0
M  V30 27 H -0.382308 1.929486 1.006617 0
M  V30 28 H -0.138213 2.142088 -0.709916 0
M  V30 29 H -0.349659 -0.357101 -1.011967 0
M  V30 30 H -0.456358 -0.547656 0.717235 0
M  V30 31 H 1.918724 0.546102 -0.838387 0
M  V30 32 H 1.907963 1.771158 1.254434 0
M  V30 33 H 1.612377 0.327365 2.197725 0
M  V30 34 H 3.540157 -1.149162 2.638810 0
M  V30 35 H 4.907112 -1.027294 1.557933 0
M  V30 36 H 3.634551 -3.683737 3.193880 0
M  V30 37 H 5.547654 -4.564079 4.497999 0
M  V30 38 H 7.856489 -5.338815 4.562597 0
M  V30 39 H 8.892608 -4.706094 3.283627 0
M  V30 40 H 8.229315 -6.339459 3.157368 0
M  V30 41 H 6.024540 -4.058226 -0.360847 0
M  V30 42 H 3.971866 0.785490 0.508090 0
M  V30 43 H 0.620708 -1.952831 -1.476571 0
M  V30 END ATOM
M  V30 BEGIN BOND
M  V30 1 1 2 1
M  V30 2 1 3 2
M  V30 3 1 4 3
M  V30 4 1 5 4
M  V30 5 1 6 5
M  V30 6 1 7 6
M  V30 7 1 8 7
M  V30 8 1 9 4
M  V30 9 2 9 8
M  V30 10 1 10 9
M  V30 11 1 11 10
M  V30 12 2 12 11
M  V30 13 1 13 11
M  V30 14 1 14 8
M  V30 15 2 14 13
M  V30 16 1 15 14
M  V30 17 2 16 15
M  V30 18 1 17 16
M  V30 19 2 18 17
M  V30 20 1 19 18
M  V30 21 1 20 18
M  V30 22 1 21 15
M  V30 23 2 21 20
M  V30 24 1 22 13
M  V30 25 3 23 22
M  V30 26 1 24 1
M  V30 27 1 25 1
M  V30 28 1 26 1
M  V30 29 1 27 2
M  V30 30 1 28 2
M  V30 31 1 29 3
M  V30 32 1 30 3
M  V30 33 1 4 31 CFG=3
M  V30 34 1 32 5
M  V30 35 1 33 5
M  V30 36 1 34 7
M  V30 37 1 35 7
M  V30 38 1 36 16
M  V30 39 1 37 17
M  V30 40 1 38 19
M  V30 41 1 39 19
M  V30 42 1 40 19
M  V30 43 1 41 21
M  V30 44 1 42 6
M  V30 45 1 43 10
M  V30 END BOND
M  V30 END CTAB
M  END
>  <r_epik_State_Penalty>  (7) 
0.47539999999999999

$$$$
20
     RDKit          3D

  0  0  0  0  0  0  0  0  0  0999 V3000
M  V30 BEGIN CTAB
M  V30 COUNTS 43 45 0 0 1
M  V30 BEGIN ATOM
M  V30 1 C -2.277146 1.272098 0.458662 0
M  V30 2 C -0.768923 1.421769 0.216096 0
M  V30 3 C -0.067533 0.073489 -0.047992 0
M  V30 4 C 1.486651 0.121472 -0.112469 0 CFG=1
M  V30 5 C 2.097821 -1.296244 -0.036306 0
M  V30 6 N 1.884759 -1.992963 -1.384764 0 CHG=1
M  V30 7 C 2.697864 -1.306877 -2.493789 0
M  V30 8 C 2.550717 0.228018 -2.462654 0
M  V30 9 C 2.013650 0.892097 -1.335614 0
M  V30 10 N 1.913321 2.241340 -1.288321 0
M  V30 11 C 2.308823 2.993248 -2.335615 0
M  V30 12 O 2.133481 4.242580 -2.124642 0 CHG=-1
M  V30 13 C 2.848389 2.424679 -3.512267 0
M  V30 14 C 2.969757 1.013691 -3.562511 0
M  V30 15 C 3.545766 0.325443 -4.759058 0
M  V30 16 C 2.821763 0.212523 -5.953378 0
M  V30 17 C 3.384619 -0.436564 -7.053629 0
M  V30 18 C 4.673035 -0.962903 -6.927718 0
M  V30 19 C 5.352165 -1.678262 -8.080249 0
M  V30 20 N 5.396810 -0.868106 -5.782471 0
M  V30 21 C 4.830543 -0.231040 -4.726122 0
M  V30 22 C 3.297266 3.248601 -4.652007 0
M  V30 23 N 3.649678 3.892717 -5.546525 0
M  V30 24 H -2.742206 2.244323 0.624709 0
M  V30 25 H -2.772107 0.811097 -0.396926 0
M  V30 26 H -2.479336 0.656251 1.335623 0
M  V30 27 H -0.316007 1.911250 1.079349 0
M  V30 28 H -0.623912 2.093073 -0.629974 0
M  V30 29 H -0.463760 -0.362739 -0.966269 0
M  V30 30 H -0.358050 -0.609617 0.752004 0
M  V30 31 H 1.828816 0.644551 0.782896 0
M  V30 32 H 3.174733 -1.291093 0.142042 0
M  V30 33 H 1.620576 -1.929951 0.712163 0
M  V30 34 H 2.327512 -1.757389 -3.415490 0
M  V30 35 H 3.731480 -1.610350 -2.322407 0
M  V30 36 H 1.827395 0.628440 -6.029323 0
M  V30 37 H 2.832088 -0.524659 -7.977786 0
M  V30 38 H 4.683795 -1.789331 -8.935031 0
M  V30 39 H 5.675172 -2.674734 -7.776160 0
M  V30 40 H 6.229676 -1.119766 -8.408264 0
M  V30 41 H 5.434509 -0.169413 -3.832511 0
M  V30 42 H 0.902462 -1.966290 -1.618764 0
M  V30 43 H 2.157234 -2.963437 -1.320210 0
M  V30 END ATOM
M  V30 BEGIN BOND
M  V30 1 1 2 1
M  V30 2 1 3 2
M  V30 3 1 4 3
M  V30 4 1 5 4
M  V30 5 1 6 5
M  V30 6 1 7 6
M  V30 7 1 8 7
M  V30 8 1 9 4
M  V30 9 2 9 8
M  V30 10 1 10 9
M  V30 11 2 11 10
M  V30 12 1 12 11
M  V30 13 1 13 11
M  V30 14 1 14 8
M  V30 15 2 14 13
M  V30 16 1 15 14
M  V30 17 2 16 15
M  V30 18 1 17 16
M  V30 19 2 18 17
M  V30 20 1 19 18
M  V30 21 1 20 18
M  V30 22 1 21 15
M  V30 23 2 21 20
M  V30 24 1 22 13
M  V30 25 3 23 22
M  V30 26 1 24 1
M  V30 27 1 25 1
M  V30 28 1 26 1
M  V30 29 1 27 2
M  V30 30 1 28 2
M  V30 31 1 29 3
M  V30 32 1 30 3
M  V30 33 1 4 31 CFG=1
M  V30 34 1 32 5
M  V30 35 1 33 5
M  V30 36 1 34 7
M  V30 37 1 35 7
M  V30 38 1 36 16
M  V30 39 1 37 17
M  V30 40 1 38 19
M  V30 41 1 39 19
M  V30 42 1 40 19
M  V30 43 1 41 21
M  V30 44 1 42 6
M  V30 45 1 43 6
M  V30 END BOND
M  V30 END CTAB
M  END
>  <r_epik_State_Penalty>  (8) 
0.51600000000000001

$$$$
21
     RDKit          3D

  0  0  0  0  0  0  0  0  0  0999 V3000
M  V30 BEGIN CTAB
M  V30 COUNTS 46 48 0 0 1
M  V30 BEGIN ATOM
M  V30 1 C -2.164893 1.501885 -0.088823 0
M  V30 2 C -0.634271 1.467970 0.017284 0
M  V30 3 C -0.066322 0.034522 0.062414 0
M  V30 4 C 1.486238 -0.052424 0.035192 0 CFG=1
M  V30 5 C 2.118418 0.739038 1.205886 0
M  V30 6 N 3.627552 0.484551 1.235250 0 CHG=1
M  V30 7 C 3.912032 -0.981126 1.588638 0
M  V30 8 C 3.154072 -1.935697 0.648794 0
M  V30 9 C 2.014525 -1.500723 -0.067246 0
M  V30 10 N 1.360909 -2.329925 -0.917055 0
M  V30 11 C 1.770871 -3.603068 -1.088205 0
M  V30 12 O 1.036988 -4.237035 -1.922383 0 CHG=-1
M  V30 13 C 2.887723 -4.134101 -0.404512 0
M  V30 14 C 3.583570 -3.274559 0.481415 0
M  V30 15 C 4.785377 -3.747434 1.237468 0
M  V30 16 C 6.010965 -3.983197 0.603262 0
M  V30 17 C 7.091522 -4.424992 1.368506 0
M  V30 18 C 6.930301 -4.621266 2.743794 0
M  V30 19 C 8.086214 -5.106790 3.604035 0
M  V30 20 C 8.227084 -6.635027 3.595994 0
M  V30 21 C 5.674944 -4.364935 3.303694 0
M  V30 22 N 4.613980 -3.934399 2.574774 0
M  V30 23 C 3.324105 -5.533891 -0.576253 0
M  V30 24 N 3.668349 -6.630648 -0.709804 0
M  V30 25 H -2.530469 2.529050 -0.110025 0
M  V30 26 H -2.510030 1.010312 -0.999205 0
M  V30 27 H -2.632428 1.001809 0.760023 0
M  V30 28 H -0.336515 2.017304 0.910707 0
M  V30 29 H -0.207999 2.005234 -0.830885 0
M  V30 30 H -0.477036 -0.508935 -0.790208 0
M  V30 31 H -0.442628 -0.477045 0.950000 0
M  V30 32 H 1.812387 0.432096 -0.887505 0
M  V30 33 H 2.016102 1.818109 1.087357 0
M  V30 34 H 1.733942 0.447357 2.185131 0
M  V30 35 H 3.613888 -1.111757 2.630031 0
M  V30 36 H 4.996176 -1.062369 1.502530 0
M  V30 37 H 6.121432 -3.830762 -0.460522 0
M  V30 38 H 8.043456 -4.616528 0.895073 0
M  V30 39 H 7.951299 -4.752667 4.627324 0
M  V30 40 H 9.011289 -4.644945 3.255149 0
M  V30 41 H 9.059524 -6.951878 4.224616 0
M  V30 42 H 8.411139 -7.011515 2.589214 0
M  V30 43 H 7.325146 -7.117629 3.974125 0
M  V30 44 H 5.499960 -4.506410 4.360229 0
M  V30 45 H 4.065645 1.086608 1.917687 0
M  V30 46 H 4.024371 0.702628 0.332196 0
M  V30 END ATOM
M  V30 BEGIN BOND
M  V30 1 1 2 1
M  V30 2 1 3 2
M  V30 3 1 4 3
M  V30 4 1 5 4
M  V30 5 1 6 5
M  V30 6 1 7 6
M  V30 7 1 8 7
M  V30 8 1 9 4
M  V30 9 2 9 8
M  V30 10 1 10 9
M  V30 11 2 11 10
M  V30 12 1 12 11
M  V30 13 1 13 11
M  V30 14 1 14 8
M  V30 15 2 14 13
M  V30 16 1 15 14
M  V30 17 2 16 15
M  V30 18 1 17 16
M  V30 19 2 18 17
M  V30 20 1 19 18
M  V30 21 1 20 19
M  V30 22 1 21 18
M  V30 23 1 22 15
M  V30 24 2 22 21
M  V30 25 1 23 13
M  V30 26 3 24 23
M  V30 27 1 25 1
M  V30 28 1 26 1
M  V30 29 1 27 1
M  V30 30 1 28 2
M  V30 31 1 29 2
M  V30 32 1 30 3
M  V30 33 1 31 3
M  V30 34 1 4 32 CFG=3
M  V30 35 1 33 5
M  V30 36 1 34 5
M  V30 37 1 35 7
M  V30 38 1 36 7
M  V30 39 1 37 16
M  V30 40 1 38 17
M  V30 41 1 39 19
M  V30 42 1 40 19
M  V30 43 1 41 20
M  V30 44 1 42 20
M  V30 45 1 43 20
M  V30 46 1 44 21
M  V30 47 1 45 6
M  V30 48 1 46 6
M  V30 END BOND
M  V30 END CTAB
M  END
>  <r_epik_State_Penalty>  (9) 
0.49509999999999998

$$$$
21
     RDKit          3D

  0  0  0  0  0  0  0  0  0  0999 V3000
M  V30 BEGIN CTAB
M  V30 COUNTS 46 48 0 0 1
M  V30 BEGIN ATOM
M  V30 1 C -2.179046 1.480088 -0.116628 0
M  V30 2 C -0.651895 1.471191 0.038229 0
M  V30 3 C -0.049663 0.053352 -0.032565 0
M  V30 4 C 1.503075 0.003228 0.028126 0 CFG=1
M  V30 5 C 2.082696 0.708684 1.286849 0
M  V30 6 N 3.528926 0.542570 1.352634 0
M  V30 7 C 3.827912 -0.865639 1.590420 0
M  V30 8 C 3.144077 -1.840088 0.624766 0
M  V30 9 C 2.071758 -1.428959 -0.108911 0
M  V30 10 N 1.414712 -2.281139 -0.961648 0
M  V30 11 C 1.750004 -3.577551 -1.180584 0
M  V30 12 O 1.113178 -4.266950 -1.975173 0
M  V30 13 C 2.894608 -4.053568 -0.405769 0
M  V30 14 C 3.571571 -3.243141 0.463954 0
M  V30 15 C 4.721018 -3.756514 1.252409 0
M  V30 16 C 5.866004 -4.294729 0.651719 0
M  V30 17 C 6.876670 -4.806810 1.467150 0
M  V30 18 C 6.722252 -4.784472 2.857149 0
M  V30 19 C 7.805182 -5.334949 3.771693 0
M  V30 20 C 8.917986 -4.315891 4.053031 0
M  V30 21 C 5.543622 -4.244395 3.380846 0
M  V30 22 N 4.550570 -3.743333 2.603118 0
M  V30 23 C 3.274881 -5.425042 -0.562701 0
M  V30 24 N 3.567256 -6.538314 -0.687666 0
M  V30 25 H -2.570236 2.495942 -0.052289 0
M  V30 26 H -2.483107 1.069702 -1.080214 0
M  V30 27 H -2.659810 0.891059 0.665300 0
M  V30 28 H -0.398323 1.939063 0.989908 0
M  V30 29 H -0.210575 2.096751 -0.738962 0
M  V30 30 H -0.396187 -0.408092 -0.958467 0
M  V30 31 H -0.460945 -0.551751 0.777250 0
M  V30 32 H 1.867895 0.552191 -0.842136 0
M  V30 33 H 1.878154 1.778741 1.249242 0
M  V30 34 H 1.614213 0.332433 2.198392 0
M  V30 35 H 3.553343 -1.115956 2.616325 0
M  V30 36 H 4.909435 -0.986519 1.522254 0
M  V30 37 H 5.971680 -4.315614 -0.423309 0
M  V30 38 H 7.769476 -5.220493 1.021052 0
M  V30 39 H 8.228246 -6.234222 3.321410 0
M  V30 40 H 7.356818 -5.662545 4.711093 0
M  V30 41 H 9.677662 -4.742046 4.708951 0
M  V30 42 H 8.524011 -3.423277 4.540258 0
M  V30 43 H 9.413755 -4.004329 3.132934 0
M  V30 44 H 5.376025 -4.208021 4.447487 0
M  V30 45 H 3.940125 0.810020 0.469495 0
M  V30 46 H 0.619063 -1.949558 -1.486769 0
M  V30 END ATOM
M  V30 BEGIN BOND
M  V30 1 1 2 1
M  V30 2 1 3 2
M  V30 3 1 4 3
M  V30 4 1 5 4
M  V30 5 1 6 5
M  V30 6 1 7 6
M  V30 7 1 8 7
M  V30 8 1 9 4
M  V30 9 2 9 8
M  V30 10 1 10 9
M  V30 11 1 11 10
M  V30 12 2 12 11
M  V30 13 1 13 11
M  V30 14 1 14 8
M  V30 15 2 14 13
M  V30 16 1 15 14
M  V30 17 2 16 15
M  V30 18 1 17 16
M  V30 19 2 18 17
M  V30 20 1 19 18
M  V30 21 1 20 19
M  V30 22 1 21 18
M  V30 23 1 22 15
M  V30 24 2 22 21
M  V30 25 1 23 13
M  V30 26 3 24 23
M  V30 27 1 25 1
M  V30 28 1 26 1
M  V30 29 1 27 1
M  V30 30 1 28 2
M  V30 31 1 29 2
M  V30 32 1 30 3
M  V30 33 1 31 3
M  V30 34 1 4 32 CFG=3
M  V30 35 1 33 5
M  V30 36 1 34 5
M  V30 37 1 35 7
M  V30 38 1 36 7
M  V30 39 1 37 16
M  V30 40 1 38 17
M  V30 41 1 39 19
M  V30 42 1 40 19
M  V30 43 1 41 20
M  V30 44 1 42 20
M  V30 45 1 43 20
M  V30 46 1 44 21
M  V30 47 1 45 6
M  V30 48 1 46 10
M  V30 END BOND
M  V30 END CTAB
M  END
>  <r_epik_State_Penalty>  (10) 
0.73219999999999996

$$$$
22
     RDKit          3D

  0  0  0  0  0  0  0  0  0  0999 V3000
M  V30 BEGIN CTAB
M  V30 COUNTS 43 45 0 0 1
M  V30 BEGIN ATOM
M  V30 1 C -2.007997 1.638829 -0.348742 0
M  V30 2 C -0.505903 1.537001 -0.051061 0
M  V30 3 C 0.019850 0.087826 -0.090189 0
M  V30 4 C 1.557357 -0.047343 0.098372 0 CFG=1
M  V30 5 C 2.070552 0.611424 1.409804 0
M  V30 6 N 3.501291 0.386420 1.569925 0
M  V30 7 C 3.730102 -1.036151 1.800779 0
M  V30 8 C 3.068851 -1.969909 0.779709 0
M  V30 9 C 2.065503 -1.504183 -0.016773 0
M  V30 10 N 1.424286 -2.319035 -0.917270 0
M  V30 11 C 1.711276 -3.628787 -1.127272 0
M  V30 12 O 1.093978 -4.281452 -1.966985 0
M  V30 13 C 2.781323 -4.164648 -0.287332 0
M  V30 14 C 3.436847 -3.389739 0.628300 0
M  V30 15 C 4.491962 -3.949748 1.474906 0
M  V30 16 O 4.435341 -3.720538 2.811705 0
M  V30 17 N 5.516954 -4.351362 3.427510 0
M  V30 18 C 6.191568 -4.954037 2.471840 0
M  V30 19 C 7.441837 -5.745241 2.799674 0
M  V30 20 C 8.709148 -5.097007 2.223987 0
M  V30 21 C 5.594976 -4.742764 1.229886 0
M  V30 22 C 3.110245 -5.550192 -0.437772 0
M  V30 23 N 3.364731 -6.671501 -0.573826 0
M  V30 24 H -2.341944 2.676106 -0.309309 0
M  V30 25 H -2.242921 1.254256 -1.341788 0
M  V30 26 H -2.595048 1.075329 0.377147 0
M  V30 27 H -0.316508 1.977346 0.928164 0
M  V30 28 H 0.041177 2.144957 -0.772730 0
M  V30 29 H -0.271867 -0.344315 -1.048348 0
M  V30 30 H -0.491340 -0.500554 0.673923 0
M  V30 31 H 2.019702 0.492052 -0.730498 0
M  V30 32 H 1.909806 1.689187 1.382461 0
M  V30 33 H 1.525244 0.235865 2.278003 0
M  V30 34 H 3.385727 -1.289144 2.804551 0
M  V30 35 H 4.808506 -1.197669 1.794395 0
M  V30 36 H 7.350110 -6.760641 2.412681 0
M  V30 37 H 7.567490 -5.858046 3.877943 0
M  V30 38 H 9.595129 -5.679864 2.477441 0
M  V30 39 H 8.851315 -4.089497 2.617331 0
M  V30 40 H 8.660189 -5.024207 1.136803 0
M  V30 41 H 5.928697 -5.120908 0.274857 0
M  V30 42 H 3.981504 0.652827 0.722073 0
M  V30 43 H 0.680179 -1.946493 -1.488473 0
M  V30 END ATOM
M  V30 BEGIN BOND
M  V30 1 1 2 1
M  V30 2 1 3 2
M  V30 3 1 4 3
M  V30 4 1 5 4
M  V30 5 1 6 5
M  V30 6 1 7 6
M  V30 7 1 8 7
M  V30 8 1 9 4
M  V30 9 2 9 8
M  V30 10 1 10 9
M  V30 11 1 11 10
M  V30 12 2 12 11
M  V30 13 1 13 11
M  V30 14 1 14 8
M  V30 15 2 14 13
M  V30 16 1 15 14
M  V30 17 1 16 15
M  V30 18 1 17 16
M  V30 19 2 18 17
M  V30 20 1 19 18
M  V30 21 1 20 19
M  V30 22 2 21 15
M  V30 23 1 21 18
M  V30 24 1 22 13
M  V30 25 3 23 22
M  V30 26 1 24 1
M  V30 27 1 25 1
M  V30 28 1 26 1
M  V30 29 1 27 2
M  V30 30 1 28 2
M  V30 31 1 29 3
M  V30 32 1 30 3
M  V30 33 1 4 31 CFG=3
M  V30 34 1 32 5
M  V30 35 1 33 5
M  V30 36 1 34 7
M  V30 37 1 35 7
M  V30 38 1 36 19
M  V30 39 1 37 19
M  V30 40 1 38 20
M  V30 41 1 39 20
M  V30 42 1 40 20
M  V30 43 1 41 21
M  V30 44 1 42 6
M  V30 45 1 43 10
M  V30 END BOND
M  V30 END CTAB
M  END
>  <r_epik_State_Penalty>  (11) 
0.38150000000000001

$$$$
22
     RDKit          3D

  0  0  0  0  0  0  0  0  0  0999 V3000
M  V30 BEGIN CTAB
M  V30 COUNTS 43 45 0 0 1
M  V30 BEGIN ATOM
M  V30 1 C -1.989972 1.683614 -0.160617 0
M  V30 2 C -0.464151 1.548705 -0.061335 0
M  V30 3 C 0.001218 0.082573 0.048157 0
M  V30 4 C 1.543811 -0.113250 0.044976 0 CFG=1
M  V30 5 C 2.211710 0.651976 1.213307 0
M  V30 6 N 3.696371 0.285346 1.280515 0 CHG=1
M  V30 7 C 3.862285 -1.191168 1.663335 0
M  V30 8 C 3.058811 -2.103468 0.718898 0
M  V30 9 C 1.969387 -1.596816 -0.028167 0
M  V30 10 N 1.276574 -2.386458 -0.885335 0
M  V30 11 C 1.596373 -3.687708 -1.036815 0
M  V30 12 O 0.835141 -4.275508 -1.880387 0 CHG=-1
M  V30 13 C 2.657288 -4.291428 -0.324714 0
M  V30 14 C 3.390506 -3.471377 0.566192 0
M  V30 15 C 4.539077 -4.017977 1.369704 0
M  V30 16 O 4.495221 -3.863911 2.717865 0
M  V30 17 N 5.639290 -4.435565 3.276671 0
M  V30 18 C 6.338540 -4.928493 2.276542 0
M  V30 19 C 7.654698 -5.634497 2.535792 0
M  V30 20 C 8.850152 -4.880698 1.935046 0
M  V30 21 C 5.699589 -4.696722 1.059549 0
M  V30 22 C 2.993932 -5.720437 -0.472850 0
M  V30 23 N 3.259338 -6.840996 -0.588087 0
M  V30 24 H -2.284012 2.730580 -0.240775 0
M  V30 25 H -2.377742 1.164353 -1.037860 0
M  V30 26 H -2.482333 1.267556 0.719173 0
M  V30 27 H -0.120017 2.118310 0.802223 0
M  V30 28 H -0.008645 2.012350 -0.937420 0
M  V30 29 H -0.439264 -0.462606 -0.788067 0
M  V30 30 H -0.418654 -0.366757 0.949748 0
M  V30 31 H 1.916913 0.331300 -0.880040 0
M  V30 32 H 2.193207 1.732967 1.072353 0
M  V30 33 H 1.787407 0.410771 2.189739 0
M  V30 34 H 3.528837 -1.280906 2.698388 0
M  V30 35 H 4.939580 -1.352542 1.606592 0
M  V30 36 H 7.621152 -6.642335 2.120525 0
M  V30 37 H 7.828758 -5.768916 3.604977 0
M  V30 38 H 9.784119 -5.406669 2.135242 0
M  V30 39 H 8.936707 -3.878376 2.356337 0
M  V30 40 H 8.753142 -4.778682 0.853302 0
M  V30 41 H 6.040730 -4.990482 0.077844 0
M  V30 42 H 4.163342 0.864806 1.963422 0
M  V30 43 H 4.128032 0.457755 0.383758 0
M  V30 END ATOM
M  V30 BEGIN BOND
M  V30 1 1 2 1
M  V30 2 1 3 2
M  V30 3 1 4 3
M  V30 4 1 5 4
M  V30 5 1 6 5
M  V30 6 1 7 6
M  V30 7 1 8 7
M  V30 8 1 9 4
M  V30 9 2 9 8
M  V30 10 1 10 9
M  V30 11 2 11 10
M  V30 12 1 12 11
M  V30 13 1 13 11
M  V30 14 1 14 8
M  V30 15 2 14 13
M  V30 16 1 15 14
M  V30 17 1 16 15
M  V30 18 1 17 16
M  V30 19 2 18 17
M  V30 20 1 19 18
M  V30 21 1 20 19
M  V30 22 2 21 15
M  V30 23 1 21 18
M  V30 24 1 22 13
M  V30 25 3 23 22
M  V30 26 1 24 1
M  V30 27 1 25 1
M  V30 28 1 26 1
M  V30 29 1 27 2
M  V30 30 1 28 2
M  V30 31 1 29 3
M  V30 32 1 30 3
M  V30 33 1 4 31 CFG=3
M  V30 34 1 32 5
M  V30 35 1 33 5
M  V30 36 1 34 7
M  V30 37 1 35 7
M  V30 38 1 36 19
M  V30 39 1 37 19
M  V30 40 1 38 20
M  V30 41 1 39 20
M  V30 42 1 40 20
M  V30 43 1 41 21
M  V30 44 1 42 6
M  V30 45 1 43 6
M  V30 END BOND
M  V30 END CTAB
M  END
>  <r_epik_State_Penalty>  (12) 
0.88719999999999999

$$$$
23
     RDKit          3D

  0  0  0  0  0  0  0  0  0  0999 V3000
M  V30 BEGIN CTAB
M  V30 COUNTS 43 45 0 0 1
M  V30 BEGIN ATOM
M  V30 1 C -1.971402 1.744862 -0.442834 0
M  V30 2 C -0.455451 1.617117 -0.239830 0
M  V30 3 C 0.015319 0.152237 -0.140708 0
M  V30 4 C 1.554949 -0.029510 -0.016340 0 CFG=1
M  V30 5 C 2.161989 0.747113 1.185244 0
M  V30 6 N 3.587768 0.472436 1.303468 0
M  V30 7 C 3.765377 -0.924297 1.686467 0
M  V30 8 C 3.014846 -1.937363 0.812055 0
M  V30 9 C 1.995739 -1.512641 0.012313 0
M  V30 10 N 1.275912 -2.387345 -0.761653 0
M  V30 11 C 1.488331 -3.724669 -0.830845 0
M  V30 12 O 0.798685 -4.432046 -1.563261 0
M  V30 13 C 2.569148 -4.220410 0.020037 0
M  V30 14 C 3.313840 -3.385077 0.809822 0
M  V30 15 C 4.393006 -3.889280 1.675096 0
M  V30 16 N 4.475009 -3.631206 2.956188 0
M  V30 17 C 5.527877 -4.195976 3.511074 0
M  V30 18 C 6.371064 -4.952649 2.696997 0
M  V30 19 C 7.632924 -5.718728 3.035582 0
M  V30 20 C 7.506184 -7.226581 2.769666 0
M  V30 21 S 5.697002 -4.880086 1.086778 0
M  V30 22 C 2.781148 -5.636482 0.038975 0
M  V30 23 N 2.921379 -6.785989 0.049813 0
M  V30 24 H -2.268335 2.792167 -0.504841 0
M  V30 25 H -2.291972 1.255703 -1.363290 0
M  V30 26 H -2.520287 1.294664 0.384950 0
M  V30 27 H -0.181369 2.161021 0.664431 0
M  V30 28 H 0.058491 2.112255 -1.064808 0
M  V30 29 H -0.345872 -0.371193 -1.027238 0
M  V30 30 H -0.473403 -0.324622 0.710560 0
M  V30 31 H 1.993000 0.392211 -0.923091 0
M  V30 32 H 2.045956 1.821419 1.042440 0
M  V30 33 H 1.646822 0.497831 2.114961 0
M  V30 34 H 3.460326 -1.044093 2.727031 0
M  V30 35 H 4.834396 -1.136171 1.651225 0
M  V30 36 H 5.684656 -4.047841 4.569464 0
M  V30 37 H 7.894340 -5.568786 4.083846 0
M  V30 38 H 8.474273 -5.324976 2.464323 0
M  V30 39 H 8.420495 -7.749941 3.050495 0
M  V30 40 H 7.318602 -7.433542 1.715416 0
M  V30 41 H 6.686421 -7.661429 3.342805 0
M  V30 42 H 4.034197 0.616797 0.408896 0
M  V30 43 H 0.523952 -2.042373 -1.339910 0
M  V30 END ATOM
M  V30 BEGIN BOND
M  V30 1 1 2 1
M  V30 2 1 3 2
M  V30 3 1 4 3
M  V30 4 1 5 4
M  V30 5 1 6 5
M  V30 6 1 7 6
M  V30 7 1 8 7
M  V30 8 1 9 4
M  V30 9 2 9 8
M  V30 10 1 10 9
M  V30 11 1 11 10
M  V30 12 2 12 11
M  V30 13 1 13 11
M  V30 14 1 14 8
M  V30 15 2 14 13
M  V30 16 1 15 14
M  V30 17 2 16 15
M  V30 18 1 17 16
M  V30 19 2 18 17
M  V30 20 1 19 18
M  V30 21 1 20 19
M  V30 22 1 21 15
M  V30 23 1 21 18
M  V30 24 1 22 13
M  V30 25 3 23 22
M  V30 26 1 24 1
M  V30 27 1 25 1
M  V30 28 1 26 1
M  V30 29 1 27 2
M  V30 30 1 28 2
M  V30 31 1 29 3
M  V30 32 1 30 3
M  V30 33 1 4 31 CFG=3
M  V30 34 1 32 5
M  V30 35 1 33 5
M  V30 36 1 34 7
M  V30 37 1 35 7
M  V30 38 1 36 17
M  V30 39 1 37 19
M  V30 40 1 38 19
M  V30 41 1 39 20
M  V30 42 1 40 20
M  V30 43 1 41 20
M  V30 44 1 42 6
M  V30 45 1 43 10
M  V30 END BOND
M  V30 END CTAB
M  END
>  <r_epik_State_Penalty>  (13) 
0.4088

$$$$
23
     RDKit          3D

  0  0  0  0  0  0  0  0  0  0999 V3000
M  V30 BEGIN CTAB
M  V30 COUNTS 43 45 0 0 1
M  V30 BEGIN ATOM
M  V30 1 C -1.839168 1.798759 -0.202578 0
M  V30 2 C -0.321790 1.601344 -0.081541 0
M  V30 3 C 0.084063 0.116364 0.012725 0
M  V30 4 C 1.617580 -0.141288 0.033119 0 CFG=1
M  V30 5 C 2.299515 0.597640 1.210270 0
M  V30 6 N 3.772527 0.187333 1.284350 0 CHG=1
M  V30 7 C 3.896651 -1.294829 1.660776 0
M  V30 8 C 3.060402 -2.178214 0.717829 0
M  V30 9 C 1.985671 -1.640617 -0.028539 0
M  V30 10 N 1.255407 -2.416536 -0.868077 0
M  V30 11 C 1.520936 -3.733204 -0.998023 0
M  V30 12 O 0.729325 -4.306974 -1.822483 0 CHG=-1
M  V30 13 C 2.563616 -4.365753 -0.284968 0
M  V30 14 C 3.339031 -3.557401 0.578316 0
M  V30 15 C 4.467760 -4.130000 1.384321 0
M  V30 16 N 4.381398 -4.438517 2.650693 0
M  V30 17 C 5.526682 -4.902449 3.108532 0
M  V30 18 C 6.605644 -4.979974 2.223341 0
M  V30 19 C 8.024601 -5.458758 2.449194 0
M  V30 20 C 9.069268 -4.352866 2.236281 0
M  V30 21 S 6.029138 -4.393330 0.680420 0
M  V30 22 C 2.849653 -5.808171 -0.407531 0
M  V30 23 N 3.075802 -6.939163 -0.502317 0
M  V30 24 H -2.090256 2.858034 -0.264136 0
M  V30 25 H -2.231543 1.313778 -1.097159 0
M  V30 26 H -2.362804 1.384622 0.659840 0
M  V30 27 H 0.028737 2.143728 0.796815 0
M  V30 28 H 0.166732 2.060241 -0.942223 0
M  V30 29 H -0.361411 -0.399122 -0.839546 0
M  V30 30 H -0.369621 -0.329289 0.899574 0
M  V30 31 H 2.021007 0.285919 -0.887271 0
M  V30 32 H 2.315096 1.679354 1.075256 0
M  V30 33 H 1.862049 0.363204 2.182518 0
M  V30 34 H 3.566108 -1.379904 2.696987 0
M  V30 35 H 4.968246 -1.486967 1.598138 0
M  V30 36 H 5.575502 -5.197854 4.146172 0
M  V30 37 H 8.247268 -6.293621 1.783755 0
M  V30 38 H 8.132535 -5.853484 3.460319 0
M  V30 39 H 10.075781 -4.726828 2.425708 0
M  V30 40 H 8.896100 -3.511744 2.908494 0
M  V30 41 H 9.046930 -3.971234 1.215136 0
M  V30 42 H 4.252042 0.750420 1.972319 0
M  V30 43 H 4.213531 0.351972 0.390634 0
M  V30 END ATOM
M  V30 BEGIN BOND
M  V30 1 1 2 1
M  V30 2 1 3 2
M  V30 3 1 4 3
M  V30 4 1 5 4
M  V30 5 1 6 5
M  V30 6 1 7 6
M  V30 7 1 8 7
M  V30 8 1 9 4
M  V30 9 2 9 8
M  V30 10 1 10 9
M  V30 11 2 11 10
M  V30 12 1 12 11
M  V30 13 1 13 11
M  V30 14 1 14 8
M  V30 15 2 14 13
M  V30 16 1 15 14
M  V30 17 2 16 15
M  V30 18 1 17 16
M  V30 19 2 18 17
M  V30 20 1 19 18
M  V30 21 1 20 19
M  V30 22 1 21 15
M  V30 23 1 21 18
M  V30 24 1 22 13
M  V30 25 3 23 22
M  V30 26 1 24 1
M  V30 27 1 25 1
M  V30 28 1 26 1
M  V30 29 1 27 2
M  V30 30 1 28 2
M  V30 31 1 29 3
M  V30 32 1 30 3
M  V30 33 1 4 31 CFG=3
M  V30 34 1 32 5
M  V30 35 1 33 5
M  V30 36 1 34 7
M  V30 37 1 35 7
M  V30 38 1 36 17
M  V30 39 1 37 19
M  V30 40 1 38 19
M  V30 41 1 39 20
M  V30 42 1 40 20
M  V30 43 1 41 20
M  V30 44 1 42 6
M  V30 45 1 43 6
M  V30 END BOND
M  V30 END CTAB
M  END
>  <r_epik_State_Penalty>  (14) 
0.77129999999999999

$$$$
27
     RDKit          3D

  0  0  0  0  0  0  0  0  0  0999 V3000
M  V30 BEGIN CTAB
M  V30 COUNTS 52 54 0 0 1
M  V30 BEGIN ATOM
M  V30 1 C -2.011473 1.660210 0.008556 0
M  V30 2 C -0.494646 1.530972 0.203938 0
M  V30 3 C 0.019564 0.094531 -0.019544 0
M  V30 4 C 1.562489 -0.067879 0.084735 0 CFG=1
M  V30 5 C 2.136911 0.445882 1.435675 0
M  V30 6 N 3.568166 0.185430 1.521782 0
M  V30 7 C 3.781738 -1.256359 1.591204 0
M  V30 8 C 3.073998 -2.063524 0.497600 0
M  V30 9 C 2.045548 -1.509256 -0.202388 0
M  V30 10 N 1.347791 -2.229718 -1.138903 0
M  V30 11 C 1.591932 -3.523085 -1.467058 0
M  V30 12 O 0.917345 -4.092822 -2.322914 0
M  V30 13 C 2.689917 -4.145849 -0.729990 0
M  V30 14 C 3.414051 -3.466819 0.212257 0
M  V30 15 N 4.447340 -4.045646 0.932945 0
M  V30 16 C 5.731585 -4.251033 0.232944 0
M  V30 17 C 6.879874 -4.543241 1.225107 0
M  V30 18 C 6.578699 -5.737499 2.157613 0
M  V30 19 C 6.408485 -7.057083 1.363421 0
M  V30 20 C 7.717764 -5.836711 3.198106 0
M  V30 21 C 5.281198 -5.345025 2.898691 0
M  V30 22 C 4.101933 -5.071478 1.938826 0
M  V30 23 C 2.996849 -5.509927 -1.035792 0
M  V30 24 N 3.237249 -6.610502 -1.303619 0
M  V30 25 H -2.339730 2.685879 0.179478 0
M  V30 26 H -2.306917 1.383721 -1.004057 0
M  V30 27 H -2.555211 1.019395 0.703663 0
M  V30 28 H -0.247346 1.864870 1.211914 0
M  V30 29 H 0.013228 2.212512 -0.479841 0
M  V30 30 H -0.317103 -0.227791 -1.005946 0
M  V30 31 H -0.461763 -0.573911 0.696446 0
M  V30 32 H 1.995986 0.552350 -0.702197 0
M  V30 33 H 1.995889 1.523367 1.522645 0
M  V30 34 H 1.615699 -0.006905 2.281400 0
M  V30 35 H 3.466640 -1.618496 2.571000 0
M  V30 36 H 4.856605 -1.430507 1.532340 0
M  V30 37 H 5.973213 -3.347633 -0.329285 0
M  V30 38 H 5.584220 -5.054793 -0.488268 0
M  V30 39 H 7.072347 -3.642435 1.812015 0
M  V30 40 H 7.798330 -4.726783 0.665717 0
M  V30 41 H 6.170501 -7.886279 2.030626 0
M  V30 42 H 7.328421 -7.319280 0.839832 0
M  V30 43 H 5.617741 -7.012935 0.615719 0
M  V30 44 H 7.524705 -6.629422 3.922209 0
M  V30 45 H 8.672136 -6.061832 2.720120 0
M  V30 46 H 7.846268 -4.909419 3.758482 0
M  V30 47 H 4.997274 -6.132437 3.598465 0
M  V30 48 H 5.447542 -4.456945 3.512141 0
M  V30 49 H 3.249233 -4.716935 2.520343 0
M  V30 50 H 3.783538 -5.965873 1.404684 0
M  V30 51 H 4.025409 0.533690 0.691112 0
M  V30 52 H 0.584616 -1.796670 -1.637979 0
M  V30 END ATOM
M  V30 BEGIN BOND
M  V30 1 1 2 1
M  V30 2 1 3 2
M  V30 3 1 4 3
M  V30 4 1 5 4
M  V30 5 1 6 5
M  V30 6 1 7 6
M  V30 7 1 8 7
M  V30 8 1 9 4
M  V30 9 2 9 8
M  V30 10 1 10 9
M  V30 11 1 11 10
M  V30 12 2 12 11
M  V30 13 1 13 11
M  V30 14 1 14 8
M  V30 15 2 14 13
M  V30 16 1 15 14
M  V30 17 1 16 15
M  V30 18 1 17 16
M  V30 19 1 18 17
M  V30 20 1 19 18
M  V30 21 1 20 18
M  V30 22 1 21 18
M  V30 23 1 22 15
M  V30 24 1 22 21
M  V30 25 1 23 13
M  V30 26 3 24 23
M  V30 27 1 25 1
M  V30 28 1 26 1
M  V30 29 1 27 1
M  V30 30 1 28 2
M  V30 31 1 29 2
M  V30 32 1 30 3
M  V30 33 1 31 3
M  V30 34 1 4 32 CFG=3
M  V30 35 1 33 5
M  V30 36 1 34 5
M  V30 37 1 35 7
M  V30 38 1 36 7
M  V30 39 1 37 16
M  V30 40 1 38 16
M  V30 41 1 39 17
M  V30 42 1 40 17
M  V30 43 1 41 19
M  V30 44 1 42 19
M  V30 45 1 43 19
M  V30 46 1 44 20
M  V30 47 1 45 20
M  V30 48 1 46 20
M  V30 49 1 47 21
M  V30 50 1 48 21
M  V30 51 1 49 22
M  V30 52 1 50 22
M  V30 53 1 51 6
M  V30 54 1 52 10
M  V30 END BOND
M  V30 END CTAB
M  END
>  <r_epik_State_Penalty>  (15) 
0.16689999999999999

$$$$
27
     RDKit          3D

  0  0  0  0  0  0  0  0  0  0999 V3000
M  V30 BEGIN CTAB
M  V30 COUNTS 52 54 0 0 1
M  V30 BEGIN ATOM
M  V30 1 C -2.053867 1.635474 0.042845 0
M  V30 2 C -0.527239 1.525643 0.155419 0
M  V30 3 C -0.025847 0.069033 0.081946 0
M  V30 4 C 1.521192 -0.089212 0.074587 0 CFG=1
M  V30 5 C 2.159750 0.545596 1.333708 0
M  V30 6 N 3.654140 0.217203 1.367014 0 CHG=1
M  V30 7 C 3.863158 -1.289318 1.566892 0
M  V30 8 C 3.090574 -2.103248 0.510166 0
M  V30 9 C 1.985134 -1.542792 -0.170361 0
M  V30 10 N 1.307348 -2.248704 -1.106758 0
M  V30 11 C 1.656541 -3.516210 -1.403002 0
M  V30 12 O 0.899736 -4.021616 -2.302456 0 CHG=-1
M  V30 13 C 2.737362 -4.171673 -0.770391 0
M  V30 14 C 3.463157 -3.434852 0.203712 0
M  V30 15 N 4.546302 -3.962381 0.908265 0
M  V30 16 C 5.819867 -4.185093 0.193153 0
M  V30 17 C 7.011612 -4.427836 1.147580 0
M  V30 18 C 6.761076 -5.608074 2.113524 0
M  V30 19 C 6.560787 -6.946545 1.357038 0
M  V30 20 C 7.942418 -5.684590 3.106172 0
M  V30 21 C 5.494486 -5.189571 2.893614 0
M  V30 22 C 4.280645 -4.960496 1.964130 0
M  V30 23 C 3.101732 -5.564807 -1.099819 0
M  V30 24 N 3.388284 -6.656177 -1.357009 0
M  V30 25 H -2.375325 2.675529 0.102662 0
M  V30 26 H -2.410862 1.234129 -0.906268 0
M  V30 27 H -2.550193 1.088843 0.845479 0
M  V30 28 H -0.213932 1.983548 1.093871 0
M  V30 29 H -0.068540 2.111973 -0.641972 0
M  V30 30 H -0.443028 -0.374366 -0.823514 0
M  V30 31 H -0.444527 -0.502143 0.912248 0
M  V30 32 H 1.891305 0.471954 -0.785894 0
M  V30 33 H 2.110402 1.634780 1.326454 0
M  V30 34 H 1.738328 0.174063 2.269508 0
M  V30 35 H 3.530856 -1.518642 2.580408 0
M  V30 36 H 4.945200 -1.408974 1.499145 0
M  V30 37 H 6.033849 -3.291050 -0.394417 0
M  V30 38 H 5.722036 -5.002141 -0.520531 0
M  V30 39 H 7.249463 -3.501975 1.675241 0
M  V30 40 H 7.899600 -4.636339 0.548723 0
M  V30 41 H 6.355520 -7.760603 2.053145 0
M  V30 42 H 7.458356 -7.218025 0.800323 0
M  V30 43 H 5.738670 -6.924049 0.643084 0
M  V30 44 H 7.780813 -6.461068 3.855066 0
M  V30 45 H 8.876036 -5.919404 2.593226 0
M  V30 46 H 8.092226 -4.744624 3.639528 0
M  V30 47 H 5.240002 -5.970653 3.611647 0
M  V30 48 H 5.657835 -4.299576 3.504765 0
M  V30 49 H 3.452588 -4.594042 2.572592 0
M  V30 50 H 3.943503 -5.898705 1.524545 0
M  V30 51 H 4.101141 0.721928 2.119256 0
M  V30 52 H 4.083505 0.510543 0.500874 0
M  V30 END ATOM
M  V30 BEGIN BOND
M  V30 1 1 2 1
M  V30 2 1 3 2
M  V30 3 1 4 3
M  V30 4 1 5 4
M  V30 5 1 6 5
M  V30 6 1 7 6
M  V30 7 1 8 7
M  V30 8 1 9 4
M  V30 9 2 9 8
M  V30 10 1 10 9
M  V30 11 2 11 10
M  V30 12 1 12 11
M  V30 13 1 13 11
M  V30 14 1 14 8
M  V30 15 2 14 13
M  V30 16 1 15 14
M  V30 17 1 16 15
M  V30 18 1 17 16
M  V30 19 1 18 17
M  V30 20 1 19 18
M  V30 21 1 20 18
M  V30 22 1 21 18
M  V30 23 1 22 15
M  V30 24 1 22 21
M  V30 25 1 23 13
M  V30 26 3 24 23
M  V30 27 1 25 1
M  V30 28 1 26 1
M  V30 29 1 27 1
M  V30 30 1 28 2
M  V30 31 1 29 2
M  V30 32 1 30 3
M  V30 33 1 31 3
M  V30 34 1 4 32 CFG=3
M  V30 35 1 33 5
M  V30 36 1 34 5
M  V30 37 1 35 7
M  V30 38 1 36 7
M  V30 39 1 37 16
M  V30 40 1 38 16
M  V30 41 1 39 17
M  V30 42 1 40 17
M  V30 43 1 41 19
M  V30 44 1 42 19
M  V30 45 1 43 19
M  V30 46 1 44 20
M  V30 47 1 45 20
M  V30 48 1 46 20
M  V30 49 1 47 21
M  V30 50 1 48 21
M  V30 51 1 49 22
M  V30 52 1 50 22
M  V30 53 1 51 6
M  V30 54 1 52 6
M  V30 END BOND
M  V30 END CTAB
M  END
>  <r_epik_State_Penalty>  (16) 
1.6071

$$$$
28
     RDKit          3D

  0  0  0  0  0  0  0  0  0  0999 V3000
M  V30 BEGIN CTAB
M  V30 COUNTS 46 48 0 0 1
M  V30 BEGIN ATOM
M  V30 1 C -2.038131 1.604780 -0.045065 0
M  V30 2 C -0.522468 1.497075 0.172036 0
M  V30 3 C 0.015298 0.068579 -0.045874 0
M  V30 4 C 1.559510 -0.073185 0.072681 0 CFG=1
M  V30 5 C 2.119657 0.464839 1.419872 0
M  V30 6 N 3.555048 0.230444 1.511376 0
M  V30 7 C 3.793323 -1.206611 1.599998 0
M  V30 8 C 3.096345 -2.042024 0.520152 0
M  V30 9 C 2.061873 -1.512502 -0.190176 0
M  V30 10 N 1.372501 -2.257771 -1.113021 0
M  V30 11 C 1.630405 -3.554203 -1.416434 0
M  V30 12 O 0.962017 -4.146724 -2.261495 0
M  V30 13 C 2.734632 -4.151202 -0.667679 0
M  V30 14 C 3.451997 -3.446851 0.261603 0
M  V30 15 N 4.492160 -3.997759 0.995314 0
M  V30 16 C 5.767190 -4.241095 0.295871 0
M  V30 17 C 6.938306 -4.419050 1.283210 0
M  V30 18 C 6.653944 -5.488456 2.340731 0
M  V30 19 C 5.309634 -5.213905 3.019219 0
M  V30 20 C 4.166312 -5.025264 2.002250 0
M  V30 21 C 3.052833 -5.518367 -0.946841 0
M  V30 22 N 3.297925 -6.623079 -1.191900 0
M  V30 23 H -2.382489 2.626335 0.118249 0
M  V30 24 H -2.315033 1.321404 -1.061036 0
M  V30 25 H -2.583463 0.958710 0.643675 0
M  V30 26 H -0.293692 1.832882 1.183661 0
M  V30 27 H -0.015329 2.186977 -0.503657 0
M  V30 28 H -0.306108 -0.259271 -1.035774 0
M  V30 29 H -0.463978 -0.606211 0.665668 0
M  V30 30 H 1.990447 0.541235 -0.720188 0
M  V30 31 H 1.959154 1.540362 1.495194 0
M  V30 32 H 1.604701 0.010855 2.268810 0
M  V30 33 H 3.488236 -1.560113 2.586028 0
M  V30 34 H 4.870760 -1.363346 1.539053 0
M  V30 35 H 5.982182 -3.388301 -0.350139 0
M  V30 36 H 5.626751 -5.113484 -0.343477 0
M  V30 37 H 7.132230 -3.467103 1.780551 0
M  V30 38 H 7.848695 -4.665898 0.736182 0
M  V30 39 H 6.631649 -6.472355 1.869704 0
M  V30 40 H 7.455379 -5.515678 3.079976 0
M  V30 41 H 5.063957 -6.024971 3.705391 0
M  V30 42 H 5.394541 -4.314208 3.630916 0
M  V30 43 H 3.267856 -4.716950 2.539507 0
M  V30 44 H 3.934118 -5.947847 1.470099 0
M  V30 45 H 4.007145 0.576651 0.677033 0
M  V30 46 H 0.605103 -1.842224 -1.620049 0
M  V30 END ATOM
M  V30 BEGIN BOND
M  V30 1 1 2 1
M  V30 2 1 3 2
M  V30 3 1 4 3
M  V30 4 1 5 4
M  V30 5 1 6 5
M  V30 6 1 7 6
M  V30 7 1 8 7
M  V30 8 1 9 4
M  V30 9 2 9 8
M  V30 10 1 10 9
M  V30 11 1 11 10
M  V30 12 2 12 11
M  V30 13 1 13 11
M  V30 14 1 14 8
M  V30 15 2 14 13
M  V30 16 1 15 14
M  V30 17 1 16 15
M  V30 18 1 17 16
M  V30 19 1 18 17
M  V30 20 1 19 18
M  V30 21 1 20 15
M  V30 22 1 20 19
M  V30 23 1 21 13
M  V30 24 3 22 21
M  V30 25 1 23 1
M  V30 26 1 24 1
M  V30 27 1 25 1
M  V30 28 1 26 2
M  V30 29 1 27 2
M  V30 30 1 28 3
M  V30 31 1 29 3
M  V30 32 1 4 30 CFG=3
M  V30 33 1 31 5
M  V30 34 1 32 5
M  V30 35 1 33 7
M  V30 36 1 34 7
M  V30 37 1 35 16
M  V30 38 1 36 16
M  V30 39 1 37 17
M  V30 40 1 38 17
M  V30 41 1 39 18
M  V30 42 1 40 18
M  V30 43 1 41 19
M  V30 44 1 42 19
M  V30 45 1 43 20
M  V30 46 1 44 20
M  V30 47 1 45 6
M  V30 48 1 46 10
M  V30 END BOND
M  V30 END CTAB
M  END
>  <r_epik_State_Penalty>  (17) 
0.16689999999999999

$$$$
28
     RDKit          3D

  0  0  0  0  0  0  0  0  0  0999 V3000
M  V30 BEGIN CTAB
M  V30 COUNTS 46 48 0 0 1
M  V30 BEGIN ATOM
M  V30 1 C -2.064183 1.590882 0.016373 0
M  V30 2 C -0.535635 1.496872 0.121979 0
M  V30 3 C -0.020605 0.043730 0.072945 0
M  V30 4 C 1.527986 -0.100525 0.071145 0 CFG=1
M  V30 5 C 2.156313 0.550808 1.326753 0
M  V30 6 N 3.653726 0.237056 1.368197 0 CHG=1
M  V30 7 C 3.876308 -1.265504 1.581693 0
M  V30 8 C 3.112897 -2.097093 0.531271 0
M  V30 9 C 2.005485 -1.552135 -0.158026 0
M  V30 10 N 1.336179 -2.272206 -1.089348 0
M  V30 11 C 1.695491 -3.539880 -1.371878 0
M  V30 12 O 0.944242 -4.059065 -2.268240 0 CHG=-1
M  V30 13 C 2.779581 -4.181042 -0.729554 0
M  V30 14 C 3.496916 -3.429106 0.240054 0
M  V30 15 N 4.582534 -3.934292 0.958460 0
M  V30 16 C 5.842583 -4.211941 0.247348 0
M  V30 17 C 7.051808 -4.276750 1.203078 0
M  V30 18 C 6.839690 -5.300749 2.325325 0
M  V30 19 C 5.487538 -5.055395 3.006977 0
M  V30 20 C 4.335701 -4.961829 1.984477 0
M  V30 21 C 3.153537 -5.574232 -1.047008 0
M  V30 22 N 3.447432 -6.665837 -1.295452 0
M  V30 23 H -2.394059 2.629239 0.057550 0
M  V30 24 H -2.423689 1.167479 -0.922075 0
M  V30 25 H -2.551351 1.056707 0.832878 0
M  V30 26 H -0.221858 1.976225 1.049442 0
M  V30 27 H -0.086966 2.072206 -0.689085 0
M  V30 28 H -0.432699 -0.417262 -0.826095 0
M  V30 29 H -0.435469 -0.518525 0.911256 0
M  V30 30 H 1.895487 0.456211 -0.793359 0
M  V30 31 H 2.096207 1.639365 1.310181 0
M  V30 32 H 1.735532 0.182256 2.264167 0
M  V30 33 H 3.544227 -1.489331 2.596491 0
M  V30 34 H 4.959658 -1.375510 1.516612 0
M  V30 35 H 6.017386 -3.410343 -0.472047 0
M  V30 36 H 5.760967 -5.137724 -0.322634 0
M  V30 37 H 7.260620 -3.284189 1.605208 0
M  V30 38 H 7.941625 -4.547859 0.634146 0
M  V30 39 H 6.861201 -6.309092 1.908727 0
M  V30 40 H 7.650854 -5.246158 3.052044 0
M  V30 41 H 5.283213 -5.870531 3.701834 0
M  V30 42 H 5.511142 -4.153957 3.621381 0
M  V30 43 H 3.421962 -4.703481 2.521997 0
M  V30 44 H 4.163827 -5.930590 1.514457 0
M  V30 45 H 4.092784 0.751978 2.118197 0
M  V30 46 H 4.084318 0.527344 0.501678 0
M  V30 END ATOM
M  V30 BEGIN BOND
M  V30 1 1 2 1
M  V30 2 1 3 2
M  V30 3 1 4 3
M  V30 4 1 5 4
M  V30 5 1 6 5
M  V30 6 1 7 6
M  V30 7 1 8 7
M  V30 8 1 9 4
M  V30 9 2 9 8
M  V30 10 1 10 9
M  V30 11 2 11 10
M  V30 12 1 12 11
M  V30 13 1 13 11
M  V30 14 1 14 8
M  V30 15 2 14 13
M  V30 16 1 15 14
M  V30 17 1 16 15
M  V30 18 1 17 16
M  V30 19 1 18 17
M  V30 20 1 19 18
M  V30 21 1 20 15
M  V30 22 1 20 19
M  V30 23 1 21 13
M  V30 24 3 22 21
M  V30 25 1 23 1
M  V30 26 1 24 1
M  V30 27 1 25 1
M  V30 28 1 26 2
M  V30 29 1 27 2
M  V30 30 1 28 3
M  V30 31 1 29 3
M  V30 32 1 4 30 CFG=3
M  V30 33 1 31 5
M  V30 34 1 32 5
M  V30 35 1 33 7
M  V30 36 1 34 7
M  V30 37 1 35 16
M  V30 38 1 36 16
M  V30 39 1 37 17
M  V30 40 1 38 17
M  V30 41 1 39 18
M  V30 42 1 40 18
M  V30 43 1 41 19
M  V30 44 1 42 19
M  V30 45 1 43 20
M  V30 46 1 44 20
M  V30 47 1 45 6
M  V30 48 1 46 6
M  V30 END BOND
M  V30 END CTAB
M  END
>  <r_epik_State_Penalty>  (18) 
1.6071

$$$$
29
     RDKit          3D

  0  0  0  0  0  0  0  0  0  0999 V3000
M  V30 BEGIN CTAB
M  V30 COUNTS 47 49 0 0 1
M  V30 BEGIN ATOM
M  V30 1 C -2.105152 1.459636 0.258071 0
M  V30 2 C -0.571666 1.421775 0.208871 0
M  V30 3 C -0.007635 -0.011513 0.148897 0
M  V30 4 C 1.535010 -0.089085 -0.017845 0 CFG=1
M  V30 5 C 2.313011 0.518321 1.186086 0
M  V30 6 N 2.097649 -0.295401 2.378802 0
M  V30 7 C 2.761626 -1.584936 2.191248 0
M  V30 8 C 2.506369 -2.266181 0.838849 0
M  V30 9 C 1.955109 -1.558799 -0.185524 0
M  V30 10 N 1.824402 -2.083092 -1.443845 0
M  V30 11 C 2.203846 -3.336660 -1.799040 0
M  V30 12 O 2.054454 -3.735871 -2.952398 0
M  V30 13 C 2.784225 -4.133654 -0.718069 0
M  V30 14 C 2.934264 -3.644310 0.552226 0
M  V30 15 N 3.490478 -4.380191 1.587517 0
M  V30 16 C 2.654297 -5.439128 2.188319 0
M  V30 17 C 3.214170 -5.907656 3.545263 0
M  V30 18 C 4.673151 -6.341785 3.396029 0
M  V30 19 C 5.481791 -5.147763 2.886168 0
M  V30 20 C 4.936417 -4.678849 1.523952 0
M  V30 21 C 5.210869 -6.838819 4.673927 0
M  V30 22 N 5.633397 -7.229553 5.677842 0
M  V30 23 C 3.187496 -5.470634 -1.031643 0
M  V30 24 N 3.500161 -6.552367 -1.300929 0
M  V30 25 H -2.466777 2.487170 0.305387 0
M  V30 26 H -2.542529 0.996667 -0.627096 0
M  V30 27 H -2.486494 0.934660 1.134482 0
M  V30 28 H -0.184437 1.940975 1.085646 0
M  V30 29 H -0.229730 1.986732 -0.659239 0
M  V30 30 H -0.478460 -0.527245 -0.690091 0
M  V30 31 H -0.318785 -0.559807 1.039661 0
M  V30 32 H 1.820967 0.465165 -0.914110 0
M  V30 33 H 3.379536 0.585489 0.961782 0
M  V30 34 H 1.987461 1.537661 1.391040 0
M  V30 35 H 2.426881 -2.245569 2.991538 0
M  V30 36 H 3.835139 -1.452965 2.333060 0
M  V30 37 H 2.596496 -6.253618 1.465543 0
M  V30 38 H 1.642857 -5.056385 2.335285 0
M  V30 39 H 2.607177 -6.718952 3.948421 0
M  V30 40 H 3.142398 -5.079393 4.252834 0
M  V30 41 H 4.724320 -7.138867 2.652570 0
M  V30 42 H 5.408396 -4.318061 3.592004 0
M  V30 43 H 6.539709 -5.400412 2.806975 0
M  V30 44 H 5.082761 -5.430984 0.748877 0
M  V30 45 H 5.473709 -3.780243 1.216150 0
M  V30 46 H 1.107598 -0.463748 2.487554 0
M  V30 47 H 1.424871 -1.525576 -2.184437 0
M  V30 END ATOM
M  V30 BEGIN BOND
M  V30 1 1 2 1
M  V30 2 1 3 2
M  V30 3 1 4 3
M  V30 4 1 5 4
M  V30 5 1 6 5
M  V30 6 1 7 6
M  V30 7 1 8 7
M  V30 8 1 9 4
M  V30 9 2 9 8
M  V30 10 1 10 9
M  V30 11 1 11 10
M  V30 12 2 12 11
M  V30 13 1 13 11
M  V30 14 1 14 8
M  V30 15 2 14 13
M  V30 16 1 15 14
M  V30 17 1 16 15
M  V30 18 1 17 16
M  V30 19 1 18 17
M  V30 20 1 19 18
M  V30 21 1 20 15
M  V30 22 1 20 19
M  V30 23 1 21 18
M  V30 24 3 22 21
M  V30 25 1 23 13
M  V30 26 3 24 23
M  V30 27 1 25 1
M  V30 28 1 26 1
M  V30 29 1 27 1
M  V30 30 1 28 2
M  V30 31 1 29 2
M  V30 32 1 30 3
M  V30 33 1 31 3
M  V30 34 1 4 32 CFG=3
M  V30 35 1 33 5
M  V30 36 1 34 5
M  V30 37 1 35 7
M  V30 38 1 36 7
M  V30 39 1 37 16
M  V30 40 1 38 16
M  V30 41 1 39 17
M  V30 42 1 40 17
M  V30 43 1 41 18
M  V30 44 1 42 19
M  V30 45 1 43 19
M  V30 46 1 44 20
M  V30 47 1 45 20
M  V30 48 1 46 6
M  V30 49 1 47 10
M  V30 END BOND
M  V30 END CTAB
M  END
>  <r_epik_State_Penalty>  (19) 
0.16689999999999999

$$$$
29
     RDKit          3D

  0  0  0  0  0  0  0  0  0  0999 V3000
M  V30 BEGIN CTAB
M  V30 COUNTS 47 49 0 0 1
M  V30 BEGIN ATOM
M  V30 1 C -2.048146 1.599700 0.015821 0
M  V30 2 C -0.521171 1.498864 0.133137 0
M  V30 3 C -0.012316 0.044061 0.077024 0
M  V30 4 C 1.535585 -0.106411 0.069401 0 CFG=1
M  V30 5 C 2.172864 0.551639 1.317009 0
M  V30 6 N 3.668640 0.229504 1.354958 0 CHG=1
M  V30 7 C 3.883786 -1.272783 1.579137 0
M  V30 8 C 3.112011 -2.107858 0.537827 0
M  V30 9 C 2.005209 -1.561843 -0.151958 0
M  V30 10 N 1.329207 -2.285036 -1.076109 0
M  V30 11 C 1.679543 -3.557165 -1.349374 0
M  V30 12 O 0.923219 -4.079365 -2.239386 0 CHG=-1
M  V30 13 C 2.761013 -4.199963 -0.704488 0
M  V30 14 C 3.486298 -3.444670 0.256186 0
M  V30 15 N 4.570215 -3.954238 0.973833 0
M  V30 16 C 4.309177 -4.959526 2.021798 0
M  V30 17 C 5.486487 -5.093437 3.008347 0
M  V30 18 C 6.768037 -5.446665 2.246396 0
M  V30 19 C 7.033735 -4.337524 1.223008 0
M  V30 20 C 5.835462 -4.215325 0.260175 0
M  V30 21 C 7.905079 -5.597052 3.169988 0
M  V30 22 N 8.798302 -5.714860 3.896053 0
M  V30 23 C 3.124434 -5.598903 -1.008604 0
M  V30 24 N 3.410167 -6.695061 -1.245888 0
M  V30 25 H -2.374723 2.638786 0.064992 0
M  V30 26 H -2.400800 1.187095 -0.930102 0
M  V30 27 H -2.543783 1.058193 0.822178 0
M  V30 28 H -0.212240 1.969052 1.067002 0
M  V30 29 H -0.063648 2.078435 -0.669769 0
M  V30 30 H -0.428229 -0.413457 -0.822028 0
M  V30 31 H -0.426962 -0.518714 0.915001 0
M  V30 32 H 1.900847 0.442852 -0.800940 0
M  V30 33 H 2.119328 1.640294 1.290693 0
M  V30 34 H 1.753744 0.194297 2.259410 0
M  V30 35 H 3.553918 -1.486240 2.596897 0
M  V30 36 H 4.966291 -1.389091 1.511020 0
M  V30 37 H 4.089757 -5.924315 1.563803 0
M  V30 38 H 3.420476 -4.661906 2.580587 0
M  V30 39 H 5.263763 -5.867190 3.743833 0
M  V30 40 H 5.591104 -4.161077 3.566478 0
M  V30 41 H 6.609252 -6.384340 1.711300 0
M  V30 42 H 7.203369 -3.372896 1.705022 0
M  V30 43 H 7.939065 -4.560425 0.657049 0
M  V30 44 H 5.743995 -5.119942 -0.341209 0
M  V30 45 H 6.026318 -3.391810 -0.429774 0
M  V30 46 H 4.113583 0.747928 2.099092 0
M  V30 47 H 4.097555 0.511216 0.484918 0
M  V30 END ATOM
M  V30 BEGIN BOND
M  V30 1 1 2 1
M  V30 2 1 3 2
M  V30 3 1 4 3
M  V30 4 1 5 4
M  V30 5 1 6 5
M  V30 6 1 7 6
M  V30 7 1 8 7
M  V30 8 1 9 4
M  V30 9 2 9 8
M  V30 10 1 10 9
M  V30 11 2 11 10
M  V30 12 1 12 11
M  V30 13 1 13 11
M  V30 14 1 14 8
M  V30 15 2 14 13
M  V30 16 1 15 14
M  V30 17 1 16 15
M  V30 18 1 17 16
M  V30 19 1 18 17
M  V30 20 1 19 18
M  V30 21 1 20 15
M  V30 22 1 20 19
M  V30 23 1 21 18
M  V30 24 3 22 21
M  V30 25 1 23 13
M  V30 26 3 24 23
M  V30 27 1 25 1
M  V30 28 1 26 1
M  V30 29 1 27 1
M  V30 30 1 28 2
M  V30 31 1 29 2
M  V30 32 1 30 3
M  V30 33 1 31 3
M  V30 34 1 4 32 CFG=3
M  V30 35 1 33 5
M  V30 36 1 34 5
M  V30 37 1 35 7
M  V30 38 1 36 7
M  V30 39 1 37 16
M  V30 40 1 38 16
M  V30 41 1 39 17
M  V30 42 1 40 17
M  V30 43 1 41 18
M  V30 44 1 42 19
M  V30 45 1 43 19
M  V30 46 1 44 20
M  V30 47 1 45 20
M  V30 48 1 46 6
M  V30 49 1 47 6
M  V30 END BOND
M  V30 END CTAB
M  END
>  <r_epik_State_Penalty>  (20) 
1.6071

$$$$
30
     RDKit          3D

  0  0  0  0  0  0  0  0  0  0999 V3000
M  V30 BEGIN CTAB
M  V30 COUNTS 50 53 0 0 1
M  V30 BEGIN ATOM
M  V30 1 C -1.976266 1.691663 0.016983 0
M  V30 2 C -0.462473 1.543680 0.222368 0
M  V30 3 C 0.033876 0.102123 -0.006106 0
M  V30 4 C 1.574232 -0.080776 0.101875 0 CFG=1
M  V30 5 C 2.150519 0.407987 1.461199 0
M  V30 6 N 3.579455 0.133755 1.544078 0
M  V30 7 C 3.780203 -1.310765 1.593922 0
M  V30 8 C 3.063006 -2.097818 0.491420 0
M  V30 9 C 2.041141 -1.523997 -0.202340 0
M  V30 10 N 1.334714 -2.225807 -1.146274 0
M  V30 11 C 1.562919 -3.518544 -1.487890 0
M  V30 12 O 0.880435 -4.070954 -2.348718 0
M  V30 13 C 2.654058 -4.161986 -0.758724 0
M  V30 14 C 3.386205 -3.501947 0.191251 0
M  V30 15 N 4.418617 -4.094746 0.902310 0
M  V30 16 C 4.062601 -5.117002 1.905453 0
M  V30 17 C 5.195292 -5.341660 2.926715 0
M  V30 18 C 6.533943 -5.616570 2.235958 0
M  V30 19 C 6.858933 -4.590773 1.146242 0
M  V30 20 C 5.673367 -4.385221 0.181786 0
M  V30 21 C 7.669435 -6.192715 3.053793 0
M  V30 22 C 6.963561 -7.054451 2.032038 0
M  V30 23 C 2.938594 -5.528524 -1.074663 0
M  V30 24 N 3.155163 -6.632555 -1.348148 0
M  V30 25 H -2.294463 2.720120 0.189093 0
M  V30 26 H -2.266975 1.421686 -0.998763 0
M  V30 27 H -2.532544 1.054528 0.705278 0
M  V30 28 H -0.216529 1.869868 1.233288 0
M  V30 29 H 0.057441 2.221951 -0.455537 0
M  V30 30 H -0.304316 -0.210495 -0.995145 0
M  V30 31 H -0.458857 -0.563656 0.704721 0
M  V30 32 H 2.018244 0.543753 -0.675731 0
M  V30 33 H 2.018087 1.485044 1.564634 0
M  V30 34 H 1.624815 -0.053622 2.299428 0
M  V30 35 H 3.464477 -1.683059 2.569560 0
M  V30 36 H 4.853290 -1.493708 1.529941 0
M  V30 37 H 3.803169 -6.029253 1.367558 0
M  V30 38 H 3.172731 -4.784322 2.442645 0
M  V30 39 H 4.925926 -6.148643 3.609362 0
M  V30 40 H 5.297023 -4.446452 3.542053 0
M  V30 41 H 7.093349 -3.638194 1.623663 0
M  V30 42 H 7.750120 -4.874844 0.585034 0
M  V30 43 H 5.496346 -5.256661 -0.449024 0
M  V30 44 H 5.901975 -3.542639 -0.472988 0
M  V30 45 H 7.504782 -6.384953 4.114454 0
M  V30 46 H 8.685350 -5.852977 2.850132 0
M  V30 47 H 7.482471 -7.319650 1.110381 0
M  V30 48 H 6.302908 -7.851413 2.374742 0
M  V30 49 H 4.040062 0.489757 0.718374 0
M  V30 50 H 0.576958 -1.777970 -1.640487 0
M  V30 END ATOM
M  V30 BEGIN BOND
M  V30 1 1 2 1
M  V30 2 1 3 2
M  V30 3 1 4 3
M  V30 4 1 5 4
M  V30 5 1 6 5
M  V30 6 1 7 6
M  V30 7 1 8 7
M  V30 8 1 9 4
M  V30 9 2 9 8
M  V30 10 1 10 9
M  V30 11 1 11 10
M  V30 12 2 12 11
M  V30 13 1 13 11
M  V30 14 1 14 8
M  V30 15 2 14 13
M  V30 16 1 15 14
M  V30 17 1 16 15
M  V30 18 1 17 16
M  V30 19 1 18 17
M  V30 20 1 19 18
M  V30 21 1 20 15
M  V30 22 1 20 19
M  V30 23 1 21 18
M  V30 24 1 22 18
M  V30 25 1 22 21
M  V30 26 1 23 13
M  V30 27 3 24 23
M  V30 28 1 25 1
M  V30 29 1 26 1
M  V30 30 1 27 1
M  V30 31 1 28 2
M  V30 32 1 29 2
M  V30 33 1 30 3
M  V30 34 1 31 3
M  V30 35 1 4 32 CFG=3
M  V30 36 1 33 5
M  V30 37 1 34 5
M  V30 38 1 35 7
M  V30 39 1 36 7
M  V30 40 1 37 16
M  V30 41 1 38 16
M  V30 42 1 39 17
M  V30 43 1 40 17
M  V30 44 1 41 19
M  V30 45 1 42 19
M  V30 46 1 43 20
M  V30 47 1 44 20
M  V30 48 1 45 21
M  V30 49 1 46 21
M  V30 50 1 47 22
M  V30 51 1 48 22
M  V30 52 1 49 6
M  V30 53 1 50 10
M  V30 END BOND
M  V30 END CTAB
M  END
>  <r_epik_State_Penalty>  (21) 
0.16689999999999999

$$$$
30
     RDKit          3D

  0  0  0  0  0  0  0  0  0  0999 V3000
M  V30 BEGIN CTAB
M  V30 COUNTS 50 53 0 0 1
M  V30 BEGIN ATOM
M  V30 1 C -2.002837 1.682854 0.089004 0
M  V30 2 C -0.478611 1.545167 0.204137 0
M  V30 3 C -0.001316 0.082145 0.101822 0
M  V30 4 C 1.543012 -0.100868 0.091287 0 CFG=1
M  V30 5 C 2.189787 0.495181 1.364675 0
M  V30 6 N 3.680556 0.150009 1.386517 0 CHG=1
M  V30 7 C 3.874639 -1.363077 1.549066 0
M  V30 8 C 3.083487 -2.146379 0.482241 0
M  V30 9 C 1.984428 -1.556173 -0.183341 0
M  V30 10 N 1.291882 -2.233833 -1.129451 0
M  V30 11 C 1.617810 -3.501893 -1.448182 0
M  V30 12 O 0.848502 -3.978031 -2.353124 0 CHG=-1
M  V30 13 C 2.689266 -4.186936 -0.830500 0
M  V30 14 C 3.432523 -3.479022 0.152642 0
M  V30 15 N 4.511358 -4.029700 0.848141 0
M  V30 16 C 5.758186 -4.317768 0.115904 0
M  V30 17 C 6.981642 -4.418349 1.050427 0
M  V30 18 C 6.736982 -5.437620 2.171907 0
M  V30 19 C 5.386675 -5.228267 2.871449 0
M  V30 20 C 4.244578 -5.083412 1.844117 0
M  V30 21 C 7.915235 -5.922635 2.988281 0
M  V30 22 C 7.254093 -6.851206 1.996287 0
M  V30 23 C 3.024378 -5.580783 -1.185433 0
M  V30 24 N 3.287393 -6.673265 -1.462917 0
M  V30 25 H -2.306750 2.727099 0.166892 0
M  V30 26 H -2.363540 1.304965 -0.868388 0
M  V30 27 H -2.510598 1.129846 0.880048 0
M  V30 28 H -0.160958 1.979743 1.152306 0
M  V30 29 H -0.007939 2.139544 -0.579922 0
M  V30 30 H -0.425659 -0.336750 -0.812121 0
M  V30 31 H -0.429779 -0.498192 0.920755 0
M  V30 32 H 1.922111 0.473095 -0.756846 0
M  V30 33 H 2.151814 1.584618 1.384980 0
M  V30 34 H 1.765983 0.103491 2.291262 0
M  V30 35 H 3.548478 -1.611931 2.559929 0
M  V30 36 H 4.954681 -1.492919 1.468683 0
M  V30 37 H 5.937500 -3.508467 -0.593534 0
M  V30 38 H 5.652548 -5.233152 -0.466824 0
M  V30 39 H 7.210599 -3.433789 1.460439 0
M  V30 40 H 7.859963 -4.694566 0.465388 0
M  V30 41 H 5.166843 -6.062566 3.539037 0
M  V30 42 H 5.412606 -4.348015 3.515197 0
M  V30 43 H 3.332567 -4.825674 2.384818 0
M  V30 44 H 4.058867 -6.035485 1.345976 0
M  V30 45 H 7.775093 -6.100736 4.054955 0
M  V30 46 H 8.906129 -5.526669 2.763822 0
M  V30 47 H 7.779746 -7.106496 1.075698 0
M  V30 48 H 6.649469 -7.679894 2.365971 0
M  V30 49 H 4.134178 0.631331 2.149908 0
M  V30 50 H 4.111914 0.460186 0.527415 0
M  V30 END ATOM
M  V30 BEGIN BOND
M  V30 1 1 2 1
M  V30 2 1 3 2
M  V30 3 1 4 3
M  V30 4 1 5 4
M  V30 5 1 6 5
M  V30 6 1 7 6
M  V30 7 1 8 7
M  V30 8 1 9 4
M  V30 9 2 9 8
M  V30 10 1 10 9
M  V30 11 2 11 10
M  V30 12 1 12 11
M  V30 13 1 13 11
M  V30 14 1 14 8
M  V30 15 2 14 13
M  V30 16 1 15 14
M  V30 17 1 16 15
M  V30 18 1 17 16
M  V30 19 1 18 17
M  V30 20 1 19 18
M  V30 21 1 20 15
M  V30 22 1 20 19
M  V30 23 1 21 18
M  V30 24 1 22 18
M  V30 25 1 22 21
M  V30 26 1 23 13
M  V30 27 3 24 23
M  V30 28 1 25 1
M  V30 29 1 26 1
M  V30 30 1 27 1
M  V30 31 1 28 2
M  V30 32 1 29 2
M  V30 33 1 30 3
M  V30 34 1 31 3
M  V30 35 1 4 32 CFG=3
M  V30 36 1 33 5
M  V30 37 1 34 5
M  V30 38 1 35 7
M  V30 39 1 36 7
M  V30 40 1 37 16
M  V30 41 1 38 16
M  V30 42 1 39 17
M  V30 43 1 40 17
M  V30 44 1 41 19
M  V30 45 1 42 19
M  V30 46 1 43 20
M  V30 47 1 44 20
M  V30 48 1 45 21
M  V30 49 1 46 21
M  V30 50 1 47 22
M  V30 51 1 48 22
M  V30 52 1 49 6
M  V30 53 1 50 6
M  V30 END BOND
M  V30 END CTAB
M  END
>  <r_epik_State_Penalty>  (22) 
1.6071

$$$$
31
     RDKit          3D

  0  0  0  0  0  0  0  0  0  0999 V3000
M  V30 BEGIN CTAB
M  V30 COUNTS 50 53 0 0 1
M  V30 BEGIN ATOM
M  V30 1 C -1.952107 1.706560 0.056894 0
M  V30 2 C -0.438822 1.542227 0.253353 0
M  V30 3 C 0.045170 0.098186 0.011254 0
M  V30 4 C 1.584339 -0.096639 0.118208 0 CFG=1
M  V30 5 C 2.163436 0.368677 1.484429 0
M  V30 6 N 3.592593 0.092722 1.557566 0
M  V30 7 C 3.793336 -1.352321 1.584333 0
M  V30 8 C 3.070444 -2.122034 0.473230 0
M  V30 9 C 2.046104 -1.536857 -0.207612 0
M  V30 10 N 1.335795 -2.223802 -1.159753 0
M  V30 11 C 1.564593 -3.510102 -1.524785 0
M  V30 12 O 0.880960 -4.048564 -2.393501 0
M  V30 13 C 2.658210 -4.165189 -0.809947 0
M  V30 14 C 3.392650 -3.520822 0.148786 0
M  V30 15 N 4.426883 -4.126819 0.845643 0
M  V30 16 C 5.681401 -4.401009 0.122055 0
M  V30 17 C 6.864412 -4.619962 1.086460 0
M  V30 18 C 6.558286 -5.690355 2.143005 0
M  V30 19 C 7.707344 -6.315949 2.897773 0
M  V30 20 C 6.981239 -7.108015 1.821893 0
M  V30 21 C 5.207944 -5.448841 2.844926 0
M  V30 22 F 4.852420 -6.490461 3.600185 0
M  V30 23 F 5.319074 -4.401993 3.665470 0
M  V30 24 C 4.076170 -5.168444 1.830853 0
M  V30 25 C 2.943624 -5.526021 -1.149360 0
M  V30 26 N 3.162519 -6.624863 -1.441484 0
M  V30 27 H -2.257760 2.737489 0.237303 0
M  V30 28 H -2.251288 1.446416 -0.958783 0
M  V30 29 H -2.511713 1.071636 0.744496 0
M  V30 30 H -0.186504 1.857194 1.266038 0
M  V30 31 H 0.084494 2.222308 -0.420312 0
M  V30 32 H -0.295162 -0.202425 -0.980753 0
M  V30 33 H -0.452816 -0.570010 0.716028 0
M  V30 34 H 2.031572 0.537424 -0.649720 0
M  V30 35 H 2.032198 1.443766 1.607147 0
M  V30 36 H 1.640049 -0.107665 2.315853 0
M  V30 37 H 3.483048 -1.739139 2.556183 0
M  V30 38 H 4.866179 -1.533912 1.511827 0
M  V30 39 H 5.505897 -5.263420 -0.521526 0
M  V30 40 H 5.909421 -3.549984 -0.521957 0
M  V30 41 H 7.082040 -3.679485 1.595159 0
M  V30 42 H 7.762405 -4.866704 0.518347 0
M  V30 43 H 7.561270 -6.583178 3.944811 0
M  V30 44 H 8.718482 -5.957720 2.702160 0
M  V30 45 H 7.486914 -7.304965 0.876037 0
M  V30 46 H 6.334075 -7.934449 2.116596 0
M  V30 47 H 3.724215 -6.073183 1.334552 0
M  V30 48 H 3.216378 -4.808242 2.398989 0
M  V30 49 H 4.049590 0.461089 0.735459 0
M  V30 50 H 0.576005 -1.768642 -1.643897 0
M  V30 END ATOM
M  V30 BEGIN BOND
M  V30 1 1 2 1
M  V30 2 1 3 2
M  V30 3 1 4 3
M  V30 4 1 5 4
M  V30 5 1 6 5
M  V30 6 1 7 6
M  V30 7 1 8 7
M  V30 8 1 9 4
M  V30 9 2 9 8
M  V30 10 1 10 9
M  V30 11 1 11 10
M  V30 12 2 12 11
M  V30 13 1 13 11
M  V30 14 1 14 8
M  V30 15 2 14 13
M  V30 16 1 15 14
M  V30 17 1 16 15
M  V30 18 1 17 16
M  V30 19 1 18 17
M  V30 20 1 19 18
M  V30 21 1 20 18
M  V30 22 1 20 19
M  V30 23 1 21 18
M  V30 24 1 22 21
M  V30 25 1 23 21
M  V30 26 1 24 15
M  V30 27 1 24 21
M  V30 28 1 25 13
M  V30 29 3 26 25
M  V30 30 1 27 1
M  V30 31 1 28 1
M  V30 32 1 29 1
M  V30 33 1 30 2
M  V30 34 1 31 2
M  V30 35 1 32 3
M  V30 36 1 33 3
M  V30 37 1 4 34 CFG=3
M  V30 38 1 35 5
M  V30 39 1 36 5
M  V30 40 1 37 7
M  V30 41 1 38 7
M  V30 42 1 39 16
M  V30 43 1 40 16
M  V30 44 1 41 17
M  V30 45 1 42 17
M  V30 46 1 43 19
M  V30 47 1 44 19
M  V30 48 1 45 20
M  V30 49 1 46 20
M  V30 50 1 47 24
M  V30 51 1 48 24
M  V30 52 1 49 6
M  V30 53 1 50 10
M  V30 END BOND
M  V30 END CTAB
M  END
>  <r_epik_State_Penalty>  (23) 
0.16689999999999999

$$$$
31
     RDKit          3D

  0  0  0  0  0  0  0  0  0  0999 V3000
M  V30 BEGIN CTAB
M  V30 COUNTS 50 53 0 0 1
M  V30 BEGIN ATOM
M  V30 1 C -1.970246 1.701197 0.120395 0
M  V30 2 C -0.447168 1.548746 0.233962 0
M  V30 3 C 0.017751 0.082683 0.115587 0
M  V30 4 C 1.560753 -0.114120 0.110988 0 CFG=1
M  V30 5 C 2.204660 0.451502 1.399546 0
M  V30 6 N 3.693628 0.098644 1.420008 0 CHG=1
M  V30 7 C 3.880917 -1.418297 1.550437 0
M  V30 8 C 3.087602 -2.175929 0.466258 0
M  V30 9 C 1.992246 -1.567486 -0.188874 0
M  V30 10 N 1.295669 -2.224480 -1.146622 0
M  V30 11 C 1.612491 -3.489613 -1.486001 0
M  V30 12 O 0.838852 -3.946386 -2.397106 0 CHG=-1
M  V30 13 C 2.679800 -4.191683 -0.880630 0
M  V30 14 C 3.430042 -3.503719 0.111241 0
M  V30 15 N 4.505996 -4.072109 0.796245 0
M  V30 16 C 5.745275 -4.382297 0.060347 0
M  V30 17 C 6.969434 -4.507917 0.992355 0
M  V30 18 C 6.719365 -5.522396 2.123250 0
M  V30 19 C 7.900535 -6.052726 2.900632 0
M  V30 20 C 7.190370 -6.942045 1.892036 0
M  V30 21 C 5.366751 -5.279742 2.826962 0
M  V30 22 F 5.058094 -6.265901 3.671815 0
M  V30 23 F 5.449983 -4.156603 3.544423 0
M  V30 24 C 4.235194 -5.131826 1.784451 0
M  V30 25 C 3.001937 -5.583745 -1.254012 0
M  V30 26 N 3.255230 -6.674725 -1.545586 0
M  V30 27 H -2.264972 2.747201 0.208424 0
M  V30 28 H -2.334668 1.336237 -0.840451 0
M  V30 29 H -2.483139 1.145498 0.906119 0
M  V30 30 H -0.126110 1.970090 1.186846 0
M  V30 31 H 0.028817 2.147635 -0.543699 0
M  V30 32 H -0.405781 -0.319522 -0.806056 0
M  V30 33 H -0.420192 -0.504688 0.924449 0
M  V30 34 H 1.950169 0.472513 -0.723568 0
M  V30 35 H 2.172438 1.540520 1.443462 0
M  V30 36 H 1.775126 0.041870 2.315677 0
M  V30 37 H 3.552013 -1.687096 2.555357 0
M  V30 38 H 4.960554 -1.551064 1.469357 0
M  V30 39 H 5.622732 -5.294823 -0.523493 0
M  V30 40 H 5.937342 -3.575520 -0.648690 0
M  V30 41 H 7.219640 -3.526704 1.398183 0
M  V30 42 H 7.839939 -4.797258 0.401827 0
M  V30 43 H 7.778552 -6.255565 3.965008 0
M  V30 44 H 8.894986 -5.672399 2.665553 0
M  V30 45 H 7.690102 -7.183825 0.953571 0
M  V30 46 H 6.576266 -7.768515 2.250930 0
M  V30 47 H 4.046364 -6.083504 1.286373 0
M  V30 48 H 3.317052 -4.880085 2.318011 0
M  V30 49 H 4.145920 0.560600 2.196221 0
M  V30 50 H 4.130059 0.425661 0.569732 0
M  V30 END ATOM
M  V30 BEGIN BOND
M  V30 1 1 2 1
M  V30 2 1 3 2
M  V30 3 1 4 3
M  V30 4 1 5 4
M  V30 5 1 6 5
M  V30 6 1 7 6
M  V30 7 1 8 7
M  V30 8 1 9 4
M  V30 9 2 9 8
M  V30 10 1 10 9
M  V30 11 2 11 10
M  V30 12 1 12 11
M  V30 13 1 13 11
M  V30 14 1 14 8
M  V30 15 2 14 13
M  V30 16 1 15 14
M  V30 17 1 16 15
M  V30 18 1 17 16
M  V30 19 1 18 17
M  V30 20 1 19 18
M  V30 21 1 20 18
M  V30 22 1 20 19
M  V30 23 1 21 18
M  V30 24 1 22 21
M  V30 25 1 23 21
M  V30 26 1 24 15
M  V30 27 1 24 21
M  V30 28 1 25 13
M  V30 29 3 26 25
M  V30 30 1 27 1
M  V30 31 1 28 1
M  V30 32 1 29 1
M  V30 33 1 30 2
M  V30 34 1 31 2
M  V30 35 1 32 3
M  V30 36 1 33 3
M  V30 37 1 4 34 CFG=3
M  V30 38 1 35 5
M  V30 39 1 36 5
M  V30 40 1 37 7
M  V30 41 1 38 7
M  V30 42 1 39 16
M  V30 43 1 40 16
M  V30 44 1 41 17
M  V30 45 1 42 17
M  V30 46 1 43 19
M  V30 47 1 44 19
M  V30 48 1 45 20
M  V30 49 1 46 20
M  V30 50 1 47 24
M  V30 51 1 48 24
M  V30 52 1 49 6
M  V30 53 1 50 6
M  V30 END BOND
M  V30 END CTAB
M  END
>  <r_epik_State_Penalty>  (24) 
1.6071

$$$$
32
     RDKit          3D

  0  0  0  0  0  0  0  0  0  0999 V3000
M  V30 BEGIN CTAB
M  V30 COUNTS 50 53 0 0 1
M  V30 BEGIN ATOM
M  V30 1 C -1.958364 1.708006 0.064840 0
M  V30 2 C -0.445058 1.545829 0.263380 0
M  V30 3 C 0.042771 0.104761 0.011649 0
M  V30 4 C 1.581583 -0.089711 0.125547 0 CFG=1
M  V30 5 C 2.151781 0.363135 1.499609 0
M  V30 6 N 3.580084 0.085313 1.581244 0
M  V30 7 C 3.779657 -1.360225 1.594833 0
M  V30 8 C 3.065766 -2.118626 0.470405 0
M  V30 9 C 2.046051 -1.526546 -0.211507 0
M  V30 10 N 1.341132 -2.204133 -1.174038 0
M  V30 11 C 1.569864 -3.487626 -1.548112 0
M  V30 12 O 0.888278 -4.017852 -2.423482 0
M  V30 13 C 2.660735 -4.149242 -0.834904 0
M  V30 14 C 3.390582 -3.514564 0.133934 0
M  V30 15 N 4.425942 -4.124801 0.826581 0
M  V30 16 C 5.675713 -4.405938 0.093322 0
M  V30 17 C 6.864283 -4.642223 1.046766 0
M  V30 18 C 6.537808 -5.702033 2.105267 0
M  V30 19 C 5.210027 -5.420971 2.817903 0
M  V30 20 C 4.070255 -5.164487 1.811989 0
M  V30 21 C 7.676284 -6.307089 2.901686 0
M  V30 22 C 6.959674 -7.142533 1.867071 0
M  V30 23 F 7.659168 -7.459081 0.777162 0
M  V30 24 F 6.209057 -8.140992 2.332806 0
M  V30 25 C 2.946234 -5.506773 -1.187061 0
M  V30 26 N 3.162100 -6.603829 -1.488115 0
M  V30 27 H -2.267725 2.736486 0.253415 0
M  V30 28 H -2.254454 1.455720 -0.953908 0
M  V30 29 H -2.517306 1.065371 0.745945 0
M  V30 30 H -0.194997 1.855260 1.278476 0
M  V30 31 H 0.078215 2.231009 -0.404965 0
M  V30 32 H -0.292133 -0.187114 -0.984871 0
M  V30 33 H -0.458269 -0.570400 0.707643 0
M  V30 34 H 2.033047 0.551619 -0.633911 0
M  V30 35 H 2.020586 1.437419 1.629852 0
M  V30 36 H 1.621969 -0.119401 2.323261 0
M  V30 37 H 3.459970 -1.756441 2.559956 0
M  V30 38 H 4.852882 -1.542118 1.529527 0
M  V30 39 H 5.907424 -3.551847 -0.545229 0
M  V30 40 H 5.490735 -5.262842 -0.554890 0
M  V30 41 H 7.101092 -3.704866 1.552760 0
M  V30 42 H 7.754252 -4.905926 0.474072 0
M  V30 43 H 4.934909 -6.231748 3.493439 0
M  V30 44 H 5.330706 -4.536486 3.445187 0
M  V30 45 H 3.186507 -4.838869 2.363396 0
M  V30 46 H 3.800061 -6.062898 1.256217 0
M  V30 47 H 7.524749 -6.533850 3.957458 0
M  V30 48 H 8.697623 -5.982252 2.700021 0
M  V30 49 H 4.044236 0.462320 0.767012 0
M  V30 50 H 0.584147 -1.744298 -1.658183 0
M  V30 END ATOM
M  V30 BEGIN BOND
M  V30 1 1 2 1
M  V30 2 1 3 2
M  V30 3 1 4 3
M  V30 4 1 5 4
M  V30 5 1 6 5
M  V30 6 1 7 6
M  V30 7 1 8 7
M  V30 8 1 9 4
M  V30 9 2 9 8
M  V30 10 1 10 9
M  V30 11 1 11 10
M  V30 12 2 12 11
M  V30 13 1 13 11
M  V30 14 1 14 8
M  V30 15 2 14 13
M  V30 16 1 15 14
M  V30 17 1 16 15
M  V30 18 1 17 16
M  V30 19 1 18 17
M  V30 20 1 19 18
M  V30 21 1 20 15
M  V30 22 1 20 19
M  V30 23 1 21 18
M  V30 24 1 22 18
M  V30 25 1 22 21
M  V30 26 1 23 22
M  V30 27 1 24 22
M  V30 28 1 25 13
M  V30 29 3 26 25
M  V30 30 1 27 1
M  V30 31 1 28 1
M  V30 32 1 29 1
M  V30 33 1 30 2
M  V30 34 1 31 2
M  V30 35 1 32 3
M  V30 36 1 33 3
M  V30 37 1 4 34 CFG=3
M  V30 38 1 35 5
M  V30 39 1 36 5
M  V30 40 1 37 7
M  V30 41 1 38 7
M  V30 42 1 39 16
M  V30 43 1 40 16
M  V30 44 1 41 17
M  V30 45 1 42 17
M  V30 46 1 43 19
M  V30 47 1 44 19
M  V30 48 1 45 20
M  V30 49 1 46 20
M  V30 50 1 47 21
M  V30 51 1 48 21
M  V30 52 1 49 6
M  V30 53 1 50 10
M  V30 END BOND
M  V30 END CTAB
M  END
>  <r_epik_State_Penalty>  (25) 
0.16689999999999999

$$$$
32
     RDKit          3D

  0  0  0  0  0  0  0  0  0  0999 V3000
M  V30 BEGIN CTAB
M  V30 COUNTS 50 53 0 0 1
M  V30 BEGIN ATOM
M  V30 1 C -1.970322 1.716919 0.126860 0
M  V30 2 C -0.447910 1.557098 0.241451 0
M  V30 3 C 0.013395 0.090466 0.116794 0
M  V30 4 C 1.556160 -0.109107 0.106426 0 CFG=1
M  V30 5 C 2.208416 0.459963 1.389463 0
M  V30 6 N 3.696269 0.101904 1.403509 0 CHG=1
M  V30 7 C 3.878593 -1.415227 1.540032 0
M  V30 8 C 3.079180 -2.174278 0.461706 0
M  V30 9 C 1.983548 -1.564203 -0.191395 0
M  V30 10 N 1.282914 -2.220941 -1.146166 0
M  V30 11 C 1.596388 -3.486790 -1.485323 0
M  V30 12 O 0.820336 -3.942173 -2.395103 0 CHG=-1
M  V30 13 C 2.663377 -4.190825 -0.881638 0
M  V30 14 C 3.416167 -3.504385 0.109426 0
M  V30 15 N 4.491971 -4.075568 0.792621 0
M  V30 16 C 5.732941 -4.367142 0.051180 0
M  V30 17 C 6.957151 -4.495703 0.980909 0
M  V30 18 C 6.704370 -5.538377 2.081142 0
M  V30 19 C 5.362303 -5.311513 2.794450 0
M  V30 20 C 4.216620 -5.139208 1.775890 0
M  V30 21 C 7.881661 -6.042959 2.890015 0
M  V30 22 C 7.214643 -6.957924 1.890531 0
M  V30 23 F 7.928349 -7.269176 0.808364 0
M  V30 24 F 6.530503 -7.984390 2.395905 0
M  V30 25 C 2.983598 -5.583033 -1.257073 0
M  V30 26 N 3.235067 -6.674025 -1.550185 0
M  V30 27 H -2.260203 2.764001 0.220138 0
M  V30 28 H -2.335246 1.358736 -0.836363 0
M  V30 29 H -2.487308 1.160192 0.909097 0
M  V30 30 H -0.126507 1.972143 1.197001 0
M  V30 31 H 0.031246 2.158115 -0.532541 0
M  V30 32 H -0.412880 -0.307852 -0.805344 0
M  V30 33 H -0.423795 -0.499169 0.924306 0
M  V30 34 H 1.943119 0.473977 -0.731806 0
M  V30 35 H 2.180461 1.549285 1.428634 0
M  V30 36 H 1.782109 0.056633 2.309894 0
M  V30 37 H 3.552130 -1.678047 2.547143 0
M  V30 38 H 4.957547 -1.551818 1.456426 0
M  V30 39 H 5.919931 -3.551978 -0.649717 0
M  V30 40 H 5.614286 -5.274572 -0.541304 0
M  V30 41 H 7.190802 -3.521909 1.413442 0
M  V30 42 H 7.834038 -4.759507 0.388380 0
M  V30 43 H 5.129960 -6.142914 3.461226 0
M  V30 44 H 5.409310 -4.434852 3.441773 0
M  V30 45 H 3.309229 -4.880235 2.323861 0
M  V30 46 H 4.019861 -6.081994 1.264452 0
M  V30 47 H 7.749125 -6.241060 3.954101 0
M  V30 48 H 8.879166 -5.660966 2.670203 0
M  V30 49 H 4.154969 0.566960 2.174124 0
M  V30 50 H 4.128370 0.422866 0.548720 0
M  V30 END ATOM
M  V30 BEGIN BOND
M  V30 1 1 2 1
M  V30 2 1 3 2
M  V30 3 1 4 3
M  V30 4 1 5 4
M  V30 5 1 6 5
M  V30 6 1 7 6
M  V30 7 1 8 7
M  V30 8 1 9 4
M  V30 9 2 9 8
M  V30 10 1 10 9
M  V30 11 2 11 10
M  V30 12 1 12 11
M  V30 13 1 13 11
M  V30 14 1 14 8
M  V30 15 2 14 13
M  V30 16 1 15 14
M  V30 17 1 16 15
M  V30 18 1 17 16
M  V30 19 1 18 17
M  V30 20 1 19 18
M  V30 21 1 20 15
M  V30 22 1 20 19
M  V30 23 1 21 18
M  V30 24 1 22 18
M  V30 25 1 22 21
M  V30 26 1 23 22
M  V30 27 1 24 22
M  V30 28 1 25 13
M  V30 29 3 26 25
M  V30 30 1 27 1
M  V30 31 1 28 1
M  V30 32 1 29 1
M  V30 33 1 30 2
M  V30 34 1 31 2
M  V30 35 1 32 3
M  V30 36 1 33 3
M  V30 37 1 4 34 CFG=3
M  V30 38 1 35 5
M  V30 39 1 36 5
M  V30 40 1 37 7
M  V30 41 1 38 7
M  V30 42 1 39 16
M  V30 43 1 40 16
M  V30 44 1 41 17
M  V30 45 1 42 17
M  V30 46 1 43 19
M  V30 47 1 44 19
M  V30 48 1 45 20
M  V30 49 1 46 20
M  V30 50 1 47 21
M  V30 51 1 48 21
M  V30 52 1 49 6
M  V30 53 1 50 6
M  V30 END BOND
M  V30 END CTAB
M  END
>  <r_epik_State_Penalty>  (26) 
1.6071

$$$$
33
     RDKit          3D

  0  0  0  0  0  0  0  0  0  0999 V3000
M  V30 BEGIN CTAB
M  V30 COUNTS 53 56 0 0 1
M  V30 BEGIN ATOM
M  V30 1 C -1.977417 1.708764 0.027922 0
M  V30 2 C -0.466933 1.552572 0.251811 0
M  V30 3 C 0.030468 0.114739 0.001242 0
M  V30 4 C 1.569661 -0.071213 0.119021 0 CFG=1
M  V30 5 C 2.136421 0.395770 1.489724 0
M  V30 6 N 3.566218 0.126109 1.573951 0
M  V30 7 C 3.773644 -1.318456 1.599160 0
M  V30 8 C 3.062040 -2.090747 0.482504 0
M  V30 9 C 2.040036 -1.509087 -0.204913 0
M  V30 10 N 1.335963 -2.199339 -1.159095 0
M  V30 11 C 1.567222 -3.486484 -1.518761 0
M  V30 12 O 0.886748 -4.027696 -2.388215 0
M  V30 13 C 2.659045 -4.137824 -0.797896 0
M  V30 14 C 3.389139 -3.489760 0.162159 0
M  V30 15 N 4.427387 -4.089309 0.859774 0
M  V30 16 C 5.672640 -4.381246 0.126060 0
M  V30 17 C 6.858341 -4.636589 1.078672 0
M  V30 18 C 6.550987 -5.712530 2.140650 0
M  V30 19 C 7.730058 -6.022746 3.083899 0
M  V30 20 C 8.091232 -7.212197 2.182227 0
M  V30 21 C 6.661068 -7.163520 1.625749 0
M  V30 22 C 5.229425 -5.372101 2.848820 0
M  V30 23 C 4.075453 -5.113381 1.860163 0
M  V30 24 C 2.944274 -5.500158 -1.131278 0
M  V30 25 N 3.156908 -6.602809 -1.413438 0
M  V30 26 H -2.293914 2.735351 0.214753 0
M  V30 27 H -2.546053 1.061561 0.696506 0
M  V30 28 H -2.254819 1.458517 -0.996713 0
M  V30 29 H 0.063568 2.243884 -0.404496 0
M  V30 30 H -0.234535 1.857737 1.272474 0
M  V30 31 H -0.468652 -0.563720 0.695353 0
M  V30 32 H -0.298516 -0.179501 -0.996559 0
M  V30 33 H 2.018792 0.565903 -0.645226 0
M  V30 34 H 1.999294 1.470368 1.610783 0
M  V30 35 H 1.608692 -0.082690 2.317183 0
M  V30 36 H 4.847751 -1.495410 1.533490 0
M  V30 37 H 3.458134 -1.708478 2.568039 0
M  V30 38 H 5.477764 -5.233004 -0.525628 0
M  V30 39 H 5.912952 -3.526090 -0.507906 0
M  V30 40 H 7.741136 -4.902246 0.495626 0
M  V30 41 H 7.109217 -3.702668 1.584413 0
M  V30 42 H 8.491135 -5.245540 3.165763 0
M  V30 43 H 7.423605 -6.325668 4.087295 0
M  V30 44 H 8.855110 -6.977408 1.438770 0
M  V30 45 H 8.358966 -8.131258 2.704624 0
M  V30 46 H 5.984951 -7.861669 2.123616 0
M  V30 47 H 6.570244 -7.294262 0.546634 0
M  V30 48 H 5.375564 -4.482032 3.463326 0
M  V30 49 H 4.945512 -6.165426 3.541607 0
M  V30 50 H 3.203779 -4.773642 2.422000 0
M  V30 51 H 3.788479 -6.014444 1.317562 0
M  V30 52 H 4.028126 0.499465 0.756795 0
M  V30 53 H 0.577030 -1.747282 -1.647304 0
M  V30 END ATOM
M  V30 BEGIN BOND
M  V30 1 1 2 1
M  V30 2 1 3 2
M  V30 3 1 4 3
M  V30 4 1 5 4
M  V30 5 1 6 5
M  V30 6 1 7 6
M  V30 7 1 8 7
M  V30 8 1 9 4
M  V30 9 2 9 8
M  V30 10 1 10 9
M  V30 11 1 11 10
M  V30 12 2 12 11
M  V30 13 1 13 11
M  V30 14 1 14 8
M  V30 15 2 14 13
M  V30 16 1 15 14
M  V30 17 1 16 15
M  V30 18 1 17 16
M  V30 19 1 18 17
M  V30 20 1 19 18
M  V30 21 1 20 19
M  V30 22 1 21 18
M  V30 23 1 21 20
M  V30 24 1 22 18
M  V30 25 1 23 15
M  V30 26 1 23 22
M  V30 27 1 24 13
M  V30 28 3 25 24
M  V30 29 1 26 1
M  V30 30 1 27 1
M  V30 31 1 28 1
M  V30 32 1 29 2
M  V30 33 1 30 2
M  V30 34 1 31 3
M  V30 35 1 32 3
M  V30 36 1 4 33 CFG=3
M  V30 37 1 34 5
M  V30 38 1 35 5
M  V30 39 1 36 7
M  V30 40 1 37 7
M  V30 41 1 38 16
M  V30 42 1 39 16
M  V30 43 1 40 17
M  V30 44 1 41 17
M  V30 45 1 42 19
M  V30 46 1 43 19
M  V30 47 1 44 20
M  V30 48 1 45 20
M  V30 49 1 46 21
M  V30 50 1 47 21
M  V30 51 1 48 22
M  V30 52 1 49 22
M  V30 53 1 50 23
M  V30 54 1 51 23
M  V30 55 1 52 6
M  V30 56 1 53 10
M  V30 END BOND
M  V30 END CTAB
M  END
>  <r_epik_State_Penalty>  (27) 
0.16689999999999999

$$$$
33
     RDKit          3D

  0  0  0  0  0  0  0  0  0  0999 V3000
M  V30 BEGIN CTAB
M  V30 COUNTS 53 56 0 0 1
M  V30 BEGIN ATOM
M  V30 1 C -1.981830 1.726587 0.118312 0
M  V30 2 C -0.459574 1.570254 0.236816 0
M  V30 3 C 0.003954 0.104664 0.109701 0
M  V30 4 C 1.546464 -0.093774 0.098944 0 CFG=1
M  V30 5 C 2.200517 0.483955 1.377112 0
M  V30 6 N 3.689223 0.128825 1.389350 0 CHG=1
M  V30 7 C 3.873920 -1.387106 1.535542 0
M  V30 8 C 3.071263 -2.154863 0.465815 0
M  V30 9 C 1.973329 -1.550828 -0.188728 0
M  V30 10 N 1.268735 -2.216613 -1.134455 0
M  V30 11 C 1.580637 -3.485866 -1.462750 0
M  V30 12 O 0.800077 -3.950370 -2.363988 0 CHG=-1
M  V30 13 C 2.650363 -4.183954 -0.856876 0
M  V30 14 C 3.407504 -3.487681 0.123994 0
M  V30 15 N 4.485204 -4.052510 0.809091 0
M  V30 16 C 5.722559 -4.355260 0.069619 0
M  V30 17 C 6.944469 -4.501158 1.000656 0
M  V30 18 C 6.712745 -5.554789 2.108155 0
M  V30 19 C 6.912773 -7.014268 1.646566 0
M  V30 20 C 8.347009 -6.948403 2.191605 0
M  V30 21 C 7.912928 -5.753888 3.053895 0
M  V30 22 C 5.371738 -5.269096 2.811566 0
M  V30 23 C 4.212737 -5.099471 1.807921 0
M  V30 24 C 2.968602 -5.579974 -1.219352 0
M  V30 25 N 3.218918 -6.674062 -1.502205 0
M  V30 26 H -2.273660 2.772694 0.214513 0
M  V30 27 H -2.499670 1.165164 0.896618 0
M  V30 28 H -2.342883 1.371055 -0.847374 0
M  V30 29 H 0.020617 2.174906 -0.533753 0
M  V30 30 H -0.141539 1.982778 1.194599 0
M  V30 31 H -0.431666 -0.485399 0.917672 0
M  V30 32 H -0.421932 -0.294601 -0.812249 0
M  V30 33 H 1.931072 0.484592 -0.743614 0
M  V30 34 H 2.170785 1.573394 1.409589 0
M  V30 35 H 1.777002 0.085433 2.301008 0
M  V30 36 H 4.952557 -1.524306 1.448286 0
M  V30 37 H 3.551547 -1.643085 2.545891 0
M  V30 38 H 5.595519 -5.256485 -0.530471 0
M  V30 39 H 5.918724 -3.537562 -0.625752 0
M  V30 40 H 7.812626 -4.771891 0.398228 0
M  V30 41 H 7.196889 -3.529659 1.428509 0
M  V30 42 H 6.287091 -7.735566 2.176038 0
M  V30 43 H 6.823370 -7.191430 0.573795 0
M  V30 44 H 8.678700 -7.828612 2.743415 0
M  V30 45 H 9.088634 -6.690235 1.433490 0
M  V30 46 H 8.621615 -4.926115 3.104384 0
M  V30 47 H 7.630398 -6.040793 4.068951 0
M  V30 48 H 5.442021 -4.383607 3.445353 0
M  V30 49 H 5.129013 -6.082474 3.496817 0
M  V30 50 H 3.316075 -4.824004 2.365402 0
M  V30 51 H 3.998571 -6.046642 1.311546 0
M  V30 52 H 4.149865 0.599267 2.155571 0
M  V30 53 H 4.118459 0.445081 0.531315 0
M  V30 END ATOM
M  V30 BEGIN BOND
M  V30 1 1 2 1
M  V30 2 1 3 2
M  V30 3 1 4 3
M  V30 4 1 5 4
M  V30 5 1 6 5
M  V30 6 1 7 6
M  V30 7 1 8 7
M  V30 8 1 9 4
M  V30 9 2 9 8
M  V30 10 1 10 9
M  V30 11 2 11 10
M  V30 12 1 12 11
M  V30 13 1 13 11
M  V30 14 1 14 8
M  V30 15 2 14 13
M  V30 16 1 15 14
M  V30 17 1 16 15
M  V30 18 1 17 16
M  V30 19 1 18 17
M  V30 20 1 19 18
M  V30 21 1 20 19
M  V30 22 1 21 18
M  V30 23 1 21 20
M  V30 24 1 22 18
M  V30 25 1 23 15
M  V30 26 1 23 22
M  V30 27 1 24 13
M  V30 28 3 25 24
M  V30 29 1 26 1
M  V30 30 1 27 1
M  V30 31 1 28 1
M  V30 32 1 29 2
M  V30 33 1 30 2
M  V30 34 1 31 3
M  V30 35 1 32 3
M  V30 36 1 4 33 CFG=3
M  V30 37 1 34 5
M  V30 38 1 35 5
M  V30 39 1 36 7
M  V30 40 1 37 7
M  V30 41 1 38 16
M  V30 42 1 39 16
M  V30 43 1 40 17
M  V30 44 1 41 17
M  V30 45 1 42 19
M  V30 46 1 43 19
M  V30 47 1 44 20
M  V30 48 1 45 20
M  V30 49 1 46 21
M  V30 50 1 47 21
M  V30 51 1 48 22
M  V30 52 1 49 22
M  V30 53 1 50 23
M  V30 54 1 51 23
M  V30 55 1 52 6
M  V30 56 1 53 6
M  V30 END BOND
M  V30 END CTAB
M  END
>  <r_epik_State_Penalty>  (28) 
1.6071

$$$$
34
     RDKit          3D

  0  0  0  0  0  0  0  0  0  0999 V3000
M  V30 BEGIN CTAB
M  V30 COUNTS 51 54 0 0 1
M  V30 BEGIN ATOM
M  V30 1 C -1.995034 1.674054 0.016297 0
M  V30 2 C -0.481055 1.536082 0.226977 0
M  V30 3 C 0.027389 0.099515 -0.007611 0
M  V30 4 C 1.568408 -0.072555 0.109274 0 CFG=1
M  V30 5 C 2.133122 0.412096 1.474775 0
M  V30 6 N 3.564139 0.150282 1.562756 0
M  V30 7 C 3.778400 -1.292704 1.604169 0
M  V30 8 C 3.073203 -2.079027 0.493372 0
M  V30 9 C 2.048728 -1.510273 -0.200682 0
M  V30 10 N 1.352188 -2.213020 -1.151541 0
M  V30 11 C 1.594641 -3.500778 -1.501749 0
M  V30 12 O 0.920626 -4.054413 -2.368254 0
M  V30 13 C 2.690283 -4.138096 -0.774285 0
M  V30 14 C 3.411778 -3.477550 0.183537 0
M  V30 15 N 4.448574 -4.065494 0.892138 0
M  V30 16 C 5.705936 -4.338365 0.171331 0
M  V30 17 C 6.885238 -4.569828 1.137495 0
M  V30 18 C 6.578486 -5.642521 2.194719 0
M  V30 19 C 5.241856 -5.340771 2.890380 0
M  V30 20 C 4.097706 -5.095918 1.886818 0
M  V30 21 C 6.724702 -7.091400 1.693080 0
M  V30 22 O 7.863880 -7.327914 2.623949 0
M  V30 23 C 7.743654 -5.939953 3.153839 0
M  V30 24 C 2.990767 -5.499156 -1.100477 0
M  V30 25 N 3.220309 -6.599076 -1.379946 0
M  V30 26 H -2.321224 2.699205 0.194416 0
M  V30 27 H -2.548812 1.027964 0.698331 0
M  V30 28 H -2.280353 1.409581 -1.002435 0
M  V30 29 H 0.036854 2.222886 -0.443844 0
M  V30 30 H -0.242537 1.857283 1.241185 0
M  V30 31 H -0.464694 -0.573895 0.696366 0
M  V30 32 H -0.302111 -0.209558 -1.000759 0
M  V30 33 H 2.012072 0.560395 -0.661746 0
M  V30 34 H 1.990784 1.487112 1.585288 0
M  V30 35 H 1.607525 -0.060310 2.306934 0
M  V30 36 H 4.853443 -1.465455 1.543768 0
M  V30 37 H 3.462318 -1.673987 2.576462 0
M  V30 38 H 5.531709 -5.194994 -0.480143 0
M  V30 39 H 5.938625 -3.481296 -0.462869 0
M  V30 40 H 7.780087 -4.828175 0.569285 0
M  V30 41 H 7.116326 -3.630486 1.642582 0
M  V30 42 H 5.359285 -4.453613 3.515080 0
M  V30 43 H 4.966370 -6.147772 3.571051 0
M  V30 44 H 3.215891 -4.765034 2.437955 0
M  V30 45 H 3.827210 -6.000130 1.341047 0
M  V30 46 H 5.915232 -7.776668 1.949775 0
M  V30 47 H 7.075527 -7.215562 0.667504 0
M  V30 48 H 8.676241 -5.407283 2.960976 0
M  V30 49 H 7.494780 -5.991443 4.215051 0
M  V30 50 H 4.024710 0.515868 0.741195 0
M  V30 51 H 0.591045 -1.769924 -1.644786 0
M  V30 END ATOM
M  V30 BEGIN BOND
M  V30 1 1 2 1
M  V30 2 1 3 2
M  V30 3 1 4 3
M  V30 4 1 5 4
M  V30 5 1 6 5
M  V30 6 1 7 6
M  V30 7 1 8 7
M  V30 8 1 9 4
M  V30 9 2 9 8
M  V30 10 1 10 9
M  V30 11 1 11 10
M  V30 12 2 12 11
M  V30 13 1 13 11
M  V30 14 1 14 8
M  V30 15 2 14 13
M  V30 16 1 15 14
M  V30 17 1 16 15
M  V30 18 1 17 16
M  V30 19 1 18 17
M  V30 20 1 19 18
M  V30 21 1 20 15
M  V30 22 1 20 19
M  V30 23 1 21 18
M  V30 24 1 22 21
M  V30 25 1 23 18
M  V30 26 1 23 22
M  V30 27 1 24 13
M  V30 28 3 25 24
M  V30 29 1 26 1
M  V30 30 1 27 1
M  V30 31 1 28 1
M  V30 32 1 29 2
M  V30 33 1 30 2
M  V30 34 1 31 3
M  V30 35 1 32 3
M  V30 36 1 4 33 CFG=3
M  V30 37 1 34 5
M  V30 38 1 35 5
M  V30 39 1 36 7
M  V30 40 1 37 7
M  V30 41 1 38 16
M  V30 42 1 39 16
M  V30 43 1 40 17
M  V30 44 1 41 17
M  V30 45 1 42 19
M  V30 46 1 43 19
M  V30 47 1 44 20
M  V30 48 1 45 20
M  V30 49 1 46 21
M  V30 50 1 47 21
M  V30 51 1 48 23
M  V30 52 1 49 23
M  V30 53 1 50 6
M  V30 54 1 51 10
M  V30 END BOND
M  V30 END CTAB
M  END
>  <r_epik_State_Penalty>  (29) 
0.16689999999999999

$$$$
34
     RDKit          3D

  0  0  0  0  0  0  0  0  0  0999 V3000
M  V30 BEGIN CTAB
M  V30 COUNTS 51 54 0 0 1
M  V30 BEGIN ATOM
M  V30 1 C -2.010402 1.679831 0.083649 0
M  V30 2 C -0.486102 1.546008 0.205280 0
M  V30 3 C -0.003352 0.085067 0.100247 0
M  V30 4 C 1.541659 -0.093451 0.091953 0 CFG=1
M  V30 5 C 2.185218 0.505052 1.365783 0
M  V30 6 N 3.676876 0.163756 1.389341 0 CHG=1
M  V30 7 C 3.874926 -1.348686 1.552725 0
M  V30 8 C 3.086746 -2.134747 0.485614 0
M  V30 9 C 1.986776 -1.547958 -0.181106 0
M  V30 10 N 1.296007 -2.228692 -1.126283 0
M  V30 11 C 1.623896 -3.496822 -1.442488 0
M  V30 12 O 0.854969 -3.976607 -2.345492 0 CHG=-1
M  V30 13 C 2.696860 -4.178425 -0.823961 0
M  V30 14 C 3.438631 -3.467090 0.157909 0
M  V30 15 N 4.517792 -4.015276 0.854482 0
M  V30 16 C 5.764865 -4.300640 0.123435 0
M  V30 17 C 6.983162 -4.425105 1.062119 0
M  V30 18 C 6.754592 -5.478228 2.162807 0
M  V30 19 C 5.405919 -5.226522 2.863170 0
M  V30 20 C 4.251665 -5.066609 1.851511 0
M  V30 21 C 7.944262 -5.674092 3.117315 0
M  V30 22 O 8.130813 -7.075423 2.644957 0
M  V30 23 C 6.979302 -6.933702 1.710033 0
M  V30 24 C 3.034302 -5.572594 -1.175821 0
M  V30 25 N 3.299670 -6.665127 -1.450509 0
M  V30 26 H -2.318210 2.722662 0.165353 0
M  V30 27 H -2.520931 1.121649 0.869219 0
M  V30 28 H -2.365160 1.306067 -0.877604 0
M  V30 29 H -0.013522 2.144769 -0.574599 0
M  V30 30 H -0.173785 1.977426 1.156749 0
M  V30 31 H -0.431228 -0.498736 0.916893 0
M  V30 32 H -0.424428 -0.332425 -0.815668 0
M  V30 33 H 1.920734 0.481027 -0.755650 0
M  V30 34 H 2.143964 1.594422 1.385625 0
M  V30 35 H 1.761178 0.113074 2.292242 0
M  V30 36 H 4.955435 -1.476037 1.473836 0
M  V30 37 H 3.548538 -1.597907 2.563381 0
M  V30 38 H 5.655350 -5.206551 -0.473032 0
M  V30 39 H 5.952961 -3.482934 -0.574190 0
M  V30 40 H 7.862394 -4.685652 0.470940 0
M  V30 41 H 7.216599 -3.449851 1.492216 0
M  V30 42 H 5.454529 -4.346273 3.506269 0
M  V30 43 H 5.174826 -6.051674 3.538687 0
M  V30 44 H 3.349080 -4.800356 2.403739 0
M  V30 45 H 4.048919 -6.015635 1.354295 0
M  V30 46 H 8.845976 -5.103708 2.888578 0
M  V30 47 H 7.710308 -5.692301 4.182924 0
M  V30 48 H 6.208770 -7.653367 1.990950 0
M  V30 49 H 7.336938 -7.073716 0.688809 0
M  V30 50 H 4.128859 0.647149 2.152557 0
M  V30 51 H 4.107584 0.474129 0.529867 0
M  V30 END ATOM
M  V30 BEGIN BOND
M  V30 1 1 2 1
M  V30 2 1 3 2
M  V30 3 1 4 3
M  V30 4 1 5 4
M  V30 5 1 6 5
M  V30 6 1 7 6
M  V30 7 1 8 7
M  V30 8 1 9 4
M  V30 9 2 9 8
M  V30 10 1 10 9
M  V30 11 2 11 10
M  V30 12 1 12 11
M  V30 13 1 13 11
M  V30 14 1 14 8
M  V30 15 2 14 13
M  V30 16 1 15 14
M  V30 17 1 16 15
M  V30 18 1 17 16
M  V30 19 1 18 17
M  V30 20 1 19 18
M  V30 21 1 20 15
M  V30 22 1 20 19
M  V30 23 1 21 18
M  V30 24 1 22 21
M  V30 25 1 23 18
M  V30 26 1 23 22
M  V30 27 1 24 13
M  V30 28 3 25 24
M  V30 29 1 26 1
M  V30 30 1 27 1
M  V30 31 1 28 1
M  V30 32 1 29 2
M  V30 33 1 30 2
M  V30 34 1 31 3
M  V30 35 1 32 3
M  V30 36 1 4 33 CFG=3
M  V30 37 1 34 5
M  V30 38 1 35 5
M  V30 39 1 36 7
M  V30 40 1 37 7
M  V30 41 1 38 16
M  V30 42 1 39 16
M  V30 43 1 40 17
M  V30 44 1 41 17
M  V30 45 1 42 19
M  V30 46 1 43 19
M  V30 47 1 44 20
M  V30 48 1 45 20
M  V30 49 1 46 21
M  V30 50 1 47 21
M  V30 51 1 48 23
M  V30 52 1 49 23
M  V30 53 1 50 6
M  V30 54 1 51 6
M  V30 END BOND
M  V30 END CTAB
M  END
>  <r_epik_State_Penalty>  (30) 
1.6071

$$$$
35
     RDKit          3D

  0  0  0  0  0  0  0  0  0  0999 V3000
M  V30 BEGIN CTAB
M  V30 COUNTS 56 59 0 0 1
M  V30 BEGIN ATOM
M  V30 1 C -2.025244 1.636879 -0.053647 0
M  V30 2 C -0.513017 1.504578 0.173539 0
M  V30 3 C -0.004390 0.059670 -0.001946 0
M  V30 4 C 1.536495 -0.105350 0.124715 0 CFG=1
M  V30 5 C 2.097008 0.409405 1.480299 0
M  V30 6 N 3.533745 0.177307 1.559333 0
M  V30 7 C 3.778926 -1.260429 1.620357 0
M  V30 8 C 3.071489 -2.082327 0.536768 0
M  V30 9 C 2.028713 -1.545002 -0.155577 0
M  V30 10 N 1.325052 -2.282437 -1.074217 0
M  V30 11 C 1.577290 -3.576587 -1.392542 0
M  V30 12 O 0.894790 -4.161534 -2.231544 0
M  V30 13 C 2.694415 -4.179452 -0.668128 0
M  V30 14 C 3.426257 -3.483134 0.255608 0
M  V30 15 N 4.473721 -4.045359 0.968971 0
M  V30 16 C 4.174455 -5.122485 1.939873 0
M  V30 17 C 5.381332 -5.404029 2.863652 0
M  V30 18 C 6.664371 -5.719293 2.061109 0
M  V30 19 C 6.563251 -6.995614 1.192604 0
M  V30 20 C 6.919816 -8.173011 2.108796 0
M  V30 21 C 7.739155 -7.584051 3.266700 0
M  V30 22 C 7.831460 -6.075170 3.003438 0
M  V30 23 C 6.922676 -4.425532 1.266857 0
M  V30 24 C 5.775012 -4.142056 0.273895 0
M  V30 25 C 3.024101 -5.536637 -0.981131 0
M  V30 26 N 3.290601 -6.628813 -1.258078 0
M  V30 27 H -2.348057 2.670895 0.071077 0
M  V30 28 H -2.586380 1.027787 0.655744 0
M  V30 29 H -2.304716 1.323025 -1.059947 0
M  V30 30 H 0.010023 2.164164 -0.520155 0
M  V30 31 H -0.280294 1.865334 1.175588 0
M  V30 32 H -0.497854 -0.587149 0.725521 0
M  V30 33 H -0.331208 -0.286850 -0.983453 0
M  V30 34 H 1.979398 0.513383 -0.658106 0
M  V30 35 H 1.933011 1.482516 1.578127 0
M  V30 36 H 1.586738 -0.063615 2.321468 0
M  V30 37 H 4.856008 -1.411231 1.541677 0
M  V30 38 H 3.489883 -1.631829 2.604664 0
M  V30 39 H 3.326815 -4.809031 2.551134 0
M  V30 40 H 3.868876 -6.004948 1.381139 0
M  V30 41 H 5.544894 -4.566243 3.544389 0
M  V30 42 H 5.127097 -6.248445 3.505513 0
M  V30 43 H 5.608406 -7.119146 0.683252 0
M  V30 44 H 7.296911 -6.937453 0.386341 0
M  V30 45 H 6.011342 -8.639195 2.492758 0
M  V30 46 H 7.473243 -8.942524 1.569254 0
M  V30 47 H 7.235763 -7.771852 4.216191 0
M  V30 48 H 8.729441 -8.036475 3.332327 0
M  V30 49 H 8.779451 -5.858067 2.507287 0
M  V30 50 H 7.848055 -5.470168 3.911331 0
M  V30 51 H 7.848465 -4.519536 0.697674 0
M  V30 52 H 7.079687 -3.577381 1.936350 0
M  V30 53 H 5.673628 -4.922258 -0.481634 0
M  V30 54 H 5.976097 -3.204276 -0.246771 0
M  V30 55 H 3.978829 0.540857 0.728593 0
M  V30 56 H 0.550178 -1.862552 -1.566314 0
M  V30 END ATOM
M  V30 BEGIN BOND
M  V30 1 1 2 1
M  V30 2 1 3 2
M  V30 3 1 4 3
M  V30 4 1 5 4
M  V30 5 1 6 5
M  V30 6 1 7 6
M  V30 7 1 8 7
M  V30 8 1 9 4
M  V30 9 2 9 8
M  V30 10 1 10 9
M  V30 11 1 11 10
M  V30 12 2 12 11
M  V30 13 1 13 11
M  V30 14 1 14 8
M  V30 15 2 14 13
M  V30 16 1 15 14
M  V30 17 1 16 15
M  V30 18 1 17 16
M  V30 19 1 18 17
M  V30 20 1 19 18
M  V30 21 1 20 19
M  V30 22 1 21 20
M  V30 23 1 22 18
M  V30 24 1 22 21
M  V30 25 1 23 18
M  V30 26 1 24 15
M  V30 27 1 24 23
M  V30 28 1 25 13
M  V30 29 3 26 25
M  V30 30 1 27 1
M  V30 31 1 28 1
M  V30 32 1 29 1
M  V30 33 1 30 2
M  V30 34 1 31 2
M  V30 35 1 32 3
M  V30 36 1 33 3
M  V30 37 1 4 34 CFG=3
M  V30 38 1 35 5
M  V30 39 1 36 5
M  V30 40 1 37 7
M  V30 41 1 38 7
M  V30 42 1 39 16
M  V30 43 1 40 16
M  V30 44 1 41 17
M  V30 45 1 42 17
M  V30 46 1 43 19
M  V30 47 1 44 19
M  V30 48 1 45 20
M  V30 49 1 46 20
M  V30 50 1 47 21
M  V30 51 1 48 21
M  V30 52 1 49 22
M  V30 53 1 50 22
M  V30 54 1 51 23
M  V30 55 1 52 23
M  V30 56 1 53 24
M  V30 57 1 54 24
M  V30 58 1 55 6
M  V30 59 1 56 10
M  V30 END BOND
M  V30 END CTAB
M  END
>  <r_epik_State_Penalty>  (31) 
0.16689999999999999

$$$$
35
     RDKit          3D

  0  0  0  0  0  0  0  0  0  0999 V3000
M  V30 BEGIN CTAB
M  V30 COUNTS 56 59 0 0 1
M  V30 BEGIN ATOM
M  V30 1 C -2.104625 1.543278 0.047515 0
M  V30 2 C -0.576116 1.458188 0.157022 0
M  V30 3 C -0.051008 0.009412 0.092595 0
M  V30 4 C 1.498654 -0.122998 0.097315 0 CFG=1
M  V30 5 C 2.118063 0.524687 1.359420 0
M  V30 6 N 3.619423 0.229604 1.398232 0 CHG=1
M  V30 7 C 3.861743 -1.272008 1.597134 0
M  V30 8 C 3.110639 -2.101945 0.537276 0
M  V30 9 C 1.991769 -1.567791 -0.142621 0
M  V30 10 N 1.328519 -2.290357 -1.076972 0
M  V30 11 C 1.711077 -3.547237 -1.378007 0
M  V30 12 O 0.965710 -4.070630 -2.276655 0 CHG=-1
M  V30 13 C 2.812991 -4.173608 -0.752223 0
M  V30 14 C 3.516263 -3.422770 0.227471 0
M  V30 15 N 4.617751 -3.923759 0.922240 0
M  V30 16 C 5.906477 -4.042909 0.205553 0
M  V30 17 C 7.098254 -4.287940 1.157254 0
M  V30 18 C 6.880630 -5.569362 1.983593 0
M  V30 19 C 6.723997 -6.859725 1.142945 0
M  V30 20 C 7.118222 -8.027120 2.056527 0
M  V30 21 C 7.986024 -7.425348 3.171825 0
M  V30 22 C 8.089451 -5.924239 2.871026 0
M  V30 23 C 5.640573 -5.216045 2.836293 0
M  V30 24 C 4.395445 -4.959194 1.956028 0
M  V30 25 C 3.225547 -5.549271 -1.098431 0
M  V30 26 N 3.550196 -6.626747 -1.368555 0
M  V30 27 H -2.441268 2.579357 0.092932 0
M  V30 28 H -2.590538 1.001830 0.859693 0
M  V30 29 H -2.458794 1.122192 -0.894009 0
M  V30 30 H -0.128448 2.046433 -0.645207 0
M  V30 31 H -0.268431 1.928117 1.091289 0
M  V30 32 H -0.467017 -0.566184 0.921136 0
M  V30 33 H -0.454050 -0.442789 -0.814997 0
M  V30 34 H 1.863949 0.443612 -0.761750 0
M  V30 35 H 2.045751 1.612538 1.352230 0
M  V30 36 H 1.701085 0.143553 2.293453 0
M  V30 37 H 4.946571 -1.367304 1.534267 0
M  V30 38 H 3.530191 -1.510008 2.608854 0
M  V30 39 H 5.846999 -4.829523 -0.546766 0
M  V30 40 H 6.083074 -3.111139 -0.333600 0
M  V30 41 H 7.990447 -4.410436 0.541484 0
M  V30 42 H 7.311514 -3.411839 1.772640 0
M  V30 43 H 5.744192 -6.982066 0.683143 0
M  V30 44 H 7.415959 -6.819663 0.299590 0
M  V30 45 H 6.226902 -8.490930 2.482069 0
M  V30 46 H 7.650539 -8.801038 1.501682 0
M  V30 47 H 7.512469 -7.583904 4.141898 0
M  V30 48 H 8.971931 -7.890372 3.214642 0
M  V30 49 H 9.012740 -5.732341 2.320775 0
M  V30 50 H 8.162858 -5.299995 3.762784 0
M  V30 51 H 5.817542 -4.384568 3.521031 0
M  V30 52 H 5.408942 -6.055243 3.493684 0
M  V30 53 H 3.591102 -4.607512 2.603967 0
M  V30 54 H 4.036575 -5.884421 1.507072 0
M  V30 55 H 4.051470 0.743448 2.153020 0
M  V30 56 H 4.046379 0.533834 0.534638 0
M  V30 END ATOM
M  V30 BEGIN BOND
M  V30 1 1 2 1
M  V30 2 1 3 2
M  V30 3 1 4 3
M  V30 4 1 5 4
M  V30 5 1 6 5
M  V30 6 1 7 6
M  V30 7 1 8 7
M  V30 8 1 9 4
M  V30 9 2 9 8
M  V30 10 1 10 9
M  V30 11 2 11 10
M  V30 12 1 12 11
M  V30 13 1 13 11
M  V30 14 1 14 8
M  V30 15 2 14 13
M  V30 16 1 15 14
M  V30 17 1 16 15
M  V30 18 1 17 16
M  V30 19 1 18 17
M  V30 20 1 19 18
M  V30 21 1 20 19
M  V30 22 1 21 20
M  V30 23 1 22 18
M  V30 24 1 22 21
M  V30 25 1 23 18
M  V30 26 1 24 15
M  V30 27 1 24 23
M  V30 28 1 25 13
M  V30 29 3 26 25
M  V30 30 1 27 1
M  V30 31 1 28 1
M  V30 32 1 29 1
M  V30 33 1 30 2
M  V30 34 1 31 2
M  V30 35 1 32 3
M  V30 36 1 33 3
M  V30 37 1 4 34 CFG=3
M  V30 38 1 35 5
M  V30 39 1 36 5
M  V30 40 1 37 7
M  V30 41 1 38 7
M  V30 42 1 39 16
M  V30 43 1 40 16
M  V30 44 1 41 17
M  V30 45 1 42 17
M  V30 46 1 43 19
M  V30 47 1 44 19
M  V30 48 1 45 20
M  V30 49 1 46 20
M  V30 50 1 47 21
M  V30 51 1 48 21
M  V30 52 1 49 22
M  V30 53 1 50 22
M  V30 54 1 51 23
M  V30 55 1 52 23
M  V30 56 1 53 24
M  V30 57 1 54 24
M  V30 58 1 55 6
M  V30 59 1 56 6
M  V30 END BOND
M  V30 END CTAB
M  END
>  <r_epik_State_Penalty>  (32) 
1.6071

$$$$
36
     RDKit          3D

  0  0  0  0  0  0  0  0  0  0999 V3000
M  V30 BEGIN CTAB
M  V30 COUNTS 54 57 0 0 1
M  V30 BEGIN ATOM
M  V30 1 C -2.014048 1.648866 -0.025616 0
M  V30 2 C -0.503195 1.511063 0.206654 0
M  V30 3 C 0.007741 0.072121 -0.008466 0
M  V30 4 C 1.547917 -0.096995 0.118559 0 CFG=1
M  V30 5 C 2.112026 0.418450 1.472774 0
M  V30 6 N 3.547068 0.177204 1.554195 0
M  V30 7 C 3.781553 -1.261674 1.619656 0
M  V30 8 C 3.074772 -2.079349 0.532718 0
M  V30 9 C 2.034505 -1.538802 -0.160770 0
M  V30 10 N 1.329374 -2.274067 -1.080384 0
M  V30 11 C 1.579241 -3.568928 -1.399097 0
M  V30 12 O 0.893345 -4.154307 -2.235156 0
M  V30 13 C 2.698401 -4.172736 -0.678356 0
M  V30 14 C 3.428914 -3.479094 0.248141 0
M  V30 15 N 4.484789 -4.038956 0.950725 0
M  V30 16 C 5.769045 -4.176014 0.230862 0
M  V30 17 C 6.934229 -4.451060 1.205182 0
M  V30 18 C 6.662283 -5.709917 2.048475 0
M  V30 19 C 7.832135 -6.021853 2.978393 0
M  V30 20 C 7.752124 -7.526888 3.172186 0
M  V30 21 O 7.407469 -7.978928 1.871601 0
M  V30 22 C 6.547700 -7.029195 1.236056 0
M  V30 23 C 5.396863 -5.367959 2.865499 0
M  V30 24 C 4.185579 -5.094747 1.944208 0
M  V30 25 C 3.028149 -5.529913 -0.991851 0
M  V30 26 N 3.302814 -6.621211 -1.263784 0
M  V30 27 H -2.340517 2.676173 0.138882 0
M  V30 28 H -2.578246 1.009919 0.654460 0
M  V30 29 H -2.285489 1.375177 -1.045640 0
M  V30 30 H 0.024726 2.192000 -0.462490 0
M  V30 31 H -0.277894 1.840538 1.221299 0
M  V30 32 H -0.487949 -0.594749 0.699036 0
M  V30 33 H -0.314099 -0.248508 -1.000343 0
M  V30 34 H 1.992241 0.519637 -0.665358 0
M  V30 35 H 1.955989 1.493300 1.565459 0
M  V30 36 H 1.597781 -0.046893 2.315875 0
M  V30 37 H 4.858184 -1.420999 1.550596 0
M  V30 38 H 3.480646 -1.628778 2.602106 0
M  V30 39 H 5.639651 -4.972456 -0.502627 0
M  V30 40 H 5.972965 -3.254536 -0.316823 0
M  V30 41 H 7.847803 -4.580905 0.623063 0
M  V30 42 H 7.116984 -3.584800 1.844186 0
M  V30 43 H 8.780638 -5.779000 2.495191 0
M  V30 44 H 7.821506 -5.449807 3.907425 0
M  V30 45 H 8.695320 -7.965296 3.499517 0
M  V30 46 H 6.991308 -7.833389 3.891985 0
M  V30 47 H 5.536696 -7.435475 1.265474 0
M  V30 48 H 6.856638 -6.907921 0.197133 0
M  V30 49 H 5.576892 -4.511289 3.517855 0
M  V30 50 H 5.144777 -6.191458 3.535021 0
M  V30 51 H 3.342426 -4.768525 2.555230 0
M  V30 52 H 3.871719 -5.982086 1.396932 0
M  V30 53 H 3.996145 0.534071 0.722572 0
M  V30 54 H 0.554367 -1.852939 -1.571280 0
M  V30 END ATOM
M  V30 BEGIN BOND
M  V30 1 1 2 1
M  V30 2 1 3 2
M  V30 3 1 4 3
M  V30 4 1 5 4
M  V30 5 1 6 5
M  V30 6 1 7 6
M  V30 7 1 8 7
M  V30 8 1 9 4
M  V30 9 2 9 8
M  V30 10 1 10 9
M  V30 11 1 11 10
M  V30 12 2 12 11
M  V30 13 1 13 11
M  V30 14 1 14 8
M  V30 15 2 14 13
M  V30 16 1 15 14
M  V30 17 1 16 15
M  V30 18 1 17 16
M  V30 19 1 18 17
M  V30 20 1 19 18
M  V30 21 1 20 19
M  V30 22 1 21 20
M  V30 23 1 22 18
M  V30 24 1 22 21
M  V30 25 1 23 18
M  V30 26 1 24 15
M  V30 27 1 24 23
M  V30 28 1 25 13
M  V30 29 3 26 25
M  V30 30 1 27 1
M  V30 31 1 28 1
M  V30 32 1 29 1
M  V30 33 1 30 2
M  V30 34 1 31 2
M  V30 35 1 32 3
M  V30 36 1 33 3
M  V30 37 1 4 34 CFG=3
M  V30 38 1 35 5
M  V30 39 1 36 5
M  V30 40 1 37 7
M  V30 41 1 38 7
M  V30 42 1 39 16
M  V30 43 1 40 16
M  V30 44 1 41 17
M  V30 45 1 42 17
M  V30 46 1 43 19
M  V30 47 1 44 19
M  V30 48 1 45 20
M  V30 49 1 46 20
M  V30 50 1 47 22
M  V30 51 1 48 22
M  V30 52 1 49 23
M  V30 53 1 50 23
M  V30 54 1 51 24
M  V30 55 1 52 24
M  V30 56 1 53 6
M  V30 57 1 54 10
M  V30 END BOND
M  V30 END CTAB
M  END
>  <r_epik_State_Penalty>  (33) 
0.16689999999999999

$$$$
36
     RDKit          3D

  0  0  0  0  0  0  0  0  0  0999 V3000
M  V30 BEGIN CTAB
M  V30 COUNTS 54 57 0 0 1
M  V30 BEGIN ATOM
M  V30 1 C -2.029624 1.617557 0.022185 0
M  V30 2 C -0.500742 1.515319 0.111511 0
M  V30 3 C 0.007876 0.061250 0.029834 0
M  V30 4 C 1.555603 -0.093534 0.031100 0 CFG=1
M  V30 5 C 2.188045 0.563769 1.282017 0
M  V30 6 N 3.680397 0.228646 1.337309 0 CHG=1
M  V30 7 C 3.878348 -1.274608 1.569919 0
M  V30 8 C 3.113324 -2.104512 0.520293 0
M  V30 9 C 2.020263 -1.551409 -0.185560 0
M  V30 10 N 1.351926 -2.270691 -1.118786 0
M  V30 11 C 1.695642 -3.546813 -1.383435 0
M  V30 12 O 0.948220 -4.065592 -2.282998 0 CHG=-1
M  V30 13 C 2.761119 -4.197243 -0.720038 0
M  V30 14 C 3.480866 -3.444126 0.245903 0
M  V30 15 N 4.543766 -3.968415 0.982827 0
M  V30 16 C 4.231259 -4.905263 2.083301 0
M  V30 17 C 5.430766 -5.137160 3.028558 0
M  V30 18 C 6.640130 -5.678860 2.244409 0
M  V30 19 C 7.819259 -5.990436 3.160682 0
M  V30 20 C 8.585384 -7.068028 2.411102 0
M  V30 21 O 7.539692 -7.869782 1.883211 0
M  V30 22 C 6.413238 -7.052392 1.552980 0
M  V30 23 C 6.989274 -4.531044 1.270477 0
M  V30 24 C 5.822770 -4.251033 0.294055 0
M  V30 25 C 3.114031 -5.602944 -1.006208 0
M  V30 26 N 3.392590 -6.704062 -1.228554 0
M  V30 27 H -2.354841 2.656276 0.087621 0
M  V30 28 H -2.510889 1.069306 0.832788 0
M  V30 29 H -2.399924 1.214081 -0.920875 0
M  V30 30 H -0.056675 2.104946 -0.691609 0
M  V30 31 H -0.177540 1.974992 1.045843 0
M  V30 32 H -0.413316 -0.516742 0.854090 0
M  V30 33 H -0.401766 -0.378471 -0.880948 0
M  V30 34 H 1.928453 0.453475 -0.837298 0
M  V30 35 H 2.144666 1.652841 1.251289 0
M  V30 36 H 1.755779 0.214036 2.221303 0
M  V30 37 H 4.960218 -1.402636 1.517476 0
M  V30 38 H 3.532633 -1.482233 2.583557 0
M  V30 39 H 3.411172 -4.484365 2.667157 0
M  V30 40 H 3.869196 -5.849448 1.676156 0
M  V30 41 H 5.664954 -4.239612 3.603926 0
M  V30 42 H 5.130465 -5.871284 3.777739 0
M  V30 43 H 8.415763 -5.114859 3.421151 0
M  V30 44 H 7.467480 -6.398881 4.110256 0
M  V30 45 H 9.204505 -6.676986 1.602115 0
M  V30 46 H 9.237995 -7.655117 3.057770 0
M  V30 47 H 5.502768 -7.543846 1.897683 0
M  V30 48 H 6.387199 -6.959114 0.467572 0
M  V30 49 H 7.862523 -4.810351 0.679087 0
M  V30 50 H 7.295057 -3.617716 1.784258 0
M  V30 51 H 5.703815 -5.068531 -0.415016 0
M  V30 52 H 6.080331 -3.371555 -0.297807 0
M  V30 53 H 4.121875 0.745908 2.084105 0
M  V30 54 H 4.120969 0.502597 0.470445 0
M  V30 END ATOM
M  V30 BEGIN BOND
M  V30 1 1 2 1
M  V30 2 1 3 2
M  V30 3 1 4 3
M  V30 4 1 5 4
M  V30 5 1 6 5
M  V30 6 1 7 6
M  V30 7 1 8 7
M  V30 8 1 9 4
M  V30 9 2 9 8
M  V30 10 1 10 9
M  V30 11 2 11 10
M  V30 12 1 12 11
M  V30 13 1 13 11
M  V30 14 1 14 8
M  V30 15 2 14 13
M  V30 16 1 15 14
M  V30 17 1 16 15
M  V30 18 1 17 16
M  V30 19 1 18 17
M  V30 20 1 19 18
M  V30 21 1 20 19
M  V30 22 1 21 20
M  V30 23 1 22 18
M  V30 24 1 22 21
M  V30 25 1 23 18
M  V30 26 1 24 15
M  V30 27 1 24 23
M  V30 28 1 25 13
M  V30 29 3 26 25
M  V30 30 1 27 1
M  V30 31 1 28 1
M  V30 32 1 29 1
M  V30 33 1 30 2
M  V30 34 1 31 2
M  V30 35 1 32 3
M  V30 36 1 33 3
M  V30 37 1 4 34 CFG=3
M  V30 38 1 35 5
M  V30 39 1 36 5
M  V30 40 1 37 7
M  V30 41 1 38 7
M  V30 42 1 39 16
M  V30 43 1 40 16
M  V30 44 1 41 17
M  V30 45 1 42 17
M  V30 46 1 43 19
M  V30 47 1 44 19
M  V30 48 1 45 20
M  V30 49 1 46 20
M  V30 50 1 47 22
M  V30 51 1 48 22
M  V30 52 1 49 23
M  V30 53 1 50 23
M  V30 54 1 51 24
M  V30 55 1 52 24
M  V30 56 1 53 6
M  V30 57 1 54 6
M  V30 END BOND
M  V30 END CTAB
M  END
>  <r_epik_State_Penalty>  (34) 
1.6071

$$$$
